
 Fire Dynamics Simulator

 Current Date     : March  7, 2021  22:29:32
 Revision         : FDS6.7.5-0-g71f0256-release
 Revision Date    : Thu Aug 20 16:19:01 2020 -0400
 Compiler         : Intel ifort 19.1.1.217
 Compilation Date : Aug 21, 2020 16:21:21

 MPI Enabled;    Number of MPI Processes:       1
 OpenMP Enabled; Number of OpenMP Threads:      4

 MPI version: 3.1
 MPI library version: Intel(R) MPI Library 2019 Update 7 for Linux* OS


 Job TITLE        : Single Couch Test Case
 Job ID string    : couch


 Grid Dimensions, Mesh     1

   Cells in the X Direction            24
   Cells in the Y Direction            10
   Cells in the Z Direction            24
   Number of Grid Cells              5760


 Physical Dimensions, Mesh     1

   Length (m)                       2.400
   Width  (m)                       1.000
   Height (m)                       2.400
   Initial Time Step (s)            0.102

Total Number of Grid Cells          5760


 Miscellaneous Parameters

   Simulation Start Time (s)          0.0
   Simulation End Time (s)          600.0
   LES Calculation
   Eddy Viscosity:           Deardorff Model (C_DEARDORFF = 0.10)
   Near-wall Eddy Viscosity: Smagorinsky with Van Driest damping (C_SMAGORINSKY = 0.20)
   Turbulent Prandtl Number:         0.50
   Turbulent Schmidt Number:         0.50
   Ambient Temperature (C):         20.00


 Mass Fraction Transformation Matrix to Convert Species Mixtures (Columns) to Primitive Species (Rows)

                         AIR       PROPANE   PRODUCTS
   PROPANE               0.000000  1.000000  0.000000
   NITROGEN              0.762470  0.000000  0.716510
   OXYGEN                0.230997  0.000000  0.000000
   CARBON DIOXIDE        0.000591  0.000000  0.178848
   CARBON MONOXIDE       0.000000  0.000000  0.000000
   WATER VAPOR           0.005941  0.000000  0.104039
   SOOT                  0.000000  0.000000  0.000603
   HYDROGEN              0.000000  0.000000  0.000000


 Primitive Species Information

   PROPANE
   Gas Species
   Molecular Weight (g/mol)            44.09562
   Ambient Density (kg/m^3)            1.833
   Enthalpy of Formation (J/kg)       -2.37E+06

   NITROGEN
   Gas Species
   Molecular Weight (g/mol)            28.01340
   Ambient Density (kg/m^3)            1.165
   Enthalpy of Formation (J/kg)        0.00E+00

   OXYGEN
   Gas Species
   Molecular Weight (g/mol)            31.99880
   Ambient Density (kg/m^3)            1.330
   Enthalpy of Formation (J/kg)        0.00E+00

   CARBON DIOXIDE
   Gas Species
   Molecular Weight (g/mol)            44.00950
   Ambient Density (kg/m^3)            1.830
   Enthalpy of Formation (J/kg)       -8.94E+06

   CARBON MONOXIDE
   Gas Species
   Molecular Weight (g/mol)            28.01010
   Ambient Density (kg/m^3)            1.164
   Enthalpy of Formation (J/kg)       -3.95E+06

   WATER VAPOR
   Gas Species
   Molecular Weight (g/mol)            18.01528
   Ambient Density (kg/m^3)            0.749
   Enthalpy of Formation (J/kg)       -1.34E+07

   SOOT
   Gas Species
   Molecular Weight (g/mol)            10.91042
   Ambient Density (kg/m^3)            0.454
   Enthalpy of Formation (J/kg)        0.00E+00

   HYDROGEN
   Gas Species
   Molecular Weight (g/mol)             2.01588
   Ambient Density (kg/m^3)            0.084
   Enthalpy of Formation (J/kg)        0.00E+00


 Tracked (Lumped) Species Information

   AIR
   Molecular Weight (g/mol)            28.75199
   Ambient Density (kg/m^3)            1.195
   Initial Mass Fraction               1.000
   Enthalpy of Formation (J/kg)     -8.50E+04

   Sub Species                    Mass Fraction     Mole Fraction
   NITROGEN                       7.624701E-01      7.825730E-01
   OXYGEN                         2.309974E-01      2.075589E-01
   CARBON DIOXIDE                 5.914651E-04      3.864120E-04
   WATER VAPOR                    5.940984E-03      9.481679E-03
 
     Viscosity (kg/m/s) Ambient,  293 K:  1.80E-05
                                  500 K:  2.61E-05
                                 1000 K:  4.13E-05
                                 1500 K:  5.37E-05
   Therm. Cond. (W/m/K) Ambient,  293 K:  2.56E-02
                                  500 K:  3.81E-02
                                 1000 K:  6.69E-02
                                 1500 K:  9.25E-02
        Enthalpy (J/kg) Ambient,  293 K: -9.01E+04
                                  500 K:  1.22E+05
                                 1000 K:  6.72E+05
                                 1500 K:  1.27E+06
    Spec. Heat (J/kg/K) Ambient,  293 K:  1.02E+03
                                  500 K:  1.04E+03
                                 1000 K:  1.16E+03
                                 1500 K:  1.23E+03
   Diff. Coeff. (m^2/s) Ambient,  293 K:  1.99E-05
                                  500 K:  4.96E-05
                                 1000 K:  1.58E-04
                                 1500 K:  3.09E-04

   PROPANE
   Molecular Weight (g/mol)            44.09562
   Ambient Density (kg/m^3)            1.833
   Initial Mass Fraction               0.000
   Enthalpy of Formation (J/kg)     -2.37E+06

   Sub Species                    Mass Fraction     Mole Fraction
   PROPANE                        1.000000E+00      1.000000E+00
 
     Viscosity (kg/m/s) Ambient,  293 K:  8.08E-06
                                  500 K:  1.31E-05
                                 1000 K:  2.23E-05
                                 1500 K:  2.96E-05
   Therm. Cond. (W/m/K) Ambient,  293 K:  1.66E-02
                                  500 K:  4.18E-02
                                 1000 K:  1.11E-01
                                 1500 K:  1.72E-01
        Enthalpy (J/kg) Ambient,  293 K: -2.38E+06
                                  500 K: -1.95E+06
                                 1000 K: -2.77E+05
                                 1500 K:  1.90E+06
    Spec. Heat (J/kg/K) Ambient,  293 K:  1.65E+03
                                  500 K:  2.55E+03
                                 1000 K:  3.96E+03
                                 1500 K:  4.67E+03
   Diff. Coeff. (m^2/s) Ambient,  293 K:  1.11E-05
                                  500 K:  2.86E-05
                                 1000 K:  9.32E-05
                                 1500 K:  1.83E-04

   PRODUCTS
   Molecular Weight (g/mol)            28.19160
   Ambient Density (kg/m^3)            1.172
   Initial Mass Fraction               0.000
   Enthalpy of Formation (J/kg)     -3.00E+06

   Sub Species                    Mass Fraction     Mole Fraction
   NITROGEN                       7.165100E-01      7.210680E-01
   CARBON DIOXIDE                 1.788479E-01      1.145664E-01
   CARBON MONOXIDE                0.000000E+00      0.000000E+00
   WATER VAPOR                    1.040393E-01      1.628081E-01
   SOOT                           6.027786E-04      1.557528E-03
 
     Viscosity (kg/m/s) Ambient,  293 K:  1.61E-05
                                  500 K:  2.39E-05
                                 1000 K:  3.89E-05
                                 1500 K:  5.14E-05
   Therm. Cond. (W/m/K) Ambient,  293 K:  2.34E-02
                                  500 K:  3.62E-02
                                 1000 K:  6.71E-02
                                 1500 K:  9.63E-02
        Enthalpy (J/kg) Ambient,  293 K: -3.00E+06
                                  500 K: -2.77E+06
                                 1000 K: -2.16E+06
                                 1500 K: -1.48E+06
    Spec. Heat (J/kg/K) Ambient,  293 K:  1.09E+03
                                  500 K:  1.14E+03
                                 1000 K:  1.30E+03
                                 1500 K:  1.40E+03
   Diff. Coeff. (m^2/s) Ambient,  293 K:  1.95E-05
                                  500 K:  4.95E-05
                                 1000 K:  1.60E-04
                                 1500 K:  3.15E-04


 Gas Phase Reaction Information

   Fuel                                           Heat of Combustion (kJ/kg)
   PROPANE                                                        45998.9362

   Stoichiometry

   Primitive Species Stoich. Coeff.
   Species ID                                                          Molar
   PROPANE                                                         -1.000000
   OXYGEN                                                          -4.962615
   CARBON DIOXIDE                                                   2.963626
   WATER VAPOR                                                      3.997979
   SOOT                                                             0.040416

   Tracked (Lumped) Species Stoich. Coeff.
   Species ID                                             Molar         Mass
   AIR                                               -23.909431   -15.589840
   PROPANE                                            -1.000000    -1.000000
   PRODUCTS                                           25.948837    16.589840

   Reaction Kinetics

   Arrhenius Parameters
   Pre-exponential:    Infinite
   Activation Energy:  N/A

   ODE Solver:  EXPLICIT EULER
   Extinction Model:  EXTINCTION 2
   Auto-Ignition Temperature (K):       0.0
   Critical Flame Temperature (K):   1720.2


 Material Information

   1 FABRIC                                                      
     Properties completely fabricated
     Emissivity                      0.900
     Density (kg/m3)                 100.0
     Specific Heat (kJ/kg/K)      1.00E+00
     Conductivity (W/m/K)          1.00E-01
     Reaction  1
        Gaseous Yields:
        AIR                                                         :     0.00
        PROPANE                                                     :     1.00
        PRODUCTS                                                    :     0.00
        A (1/s)    :  1.82E+15
        E (J/mol):  1.99E+05
        H_R (kJ/kg):  3.00E+03
        N_S        :     1.00

   2 FOAM                                                        
     Properties completely fabricated
     Emissivity                      0.900
     Density (kg/m3)                  40.0
     Specific Heat (kJ/kg/K)      1.00E+00
     Conductivity (W/m/K)          5.00E-02
     Reaction  1
        Gaseous Yields:
        AIR                                                         :     0.00
        PROPANE                                                     :     1.00
        PRODUCTS                                                    :     0.00
        A (1/s)    :  1.82E+15
        E (J/mol):  1.99E+05
        H_R (kJ/kg):  1.50E+03
        N_S        :     1.00

   3 GYPSUM PLASTER                                              
     Quintiere, Fire Behavior
     Emissivity                      0.900
     Density (kg/m3)                1440.0
     Specific Heat (kJ/kg/K)      8.40E-01
     Conductivity (W/m/K)          4.80E-01


 Surface Conditions

   0 INERT

   1 UPHOLSTERY
     Properties completely fabricated
     Material List
          1  FABRIC
          2  FOAM
     Layer  1
        Thickness   (m):  0.00200
        Density (kg/m3):   100.00
        FABRIC, Mass fraction:    1.00
     Layer  2
        Thickness   (m):  0.10000
        Density (kg/m3):    40.00
        FOAM, Mass fraction:    1.00
     Total surface density     4.200 kg/m2
     Reaction products considered from the first  1.00 layers.
     Solid Phase Node, Layer, Coordinates(m):
                    0      1       0.0000000
                    1      1       0.0005000
                    2      1       0.0015000
                    3      1       0.0020000
                    4      2       0.0030638
                    5      2       0.0051915
                    6      2       0.0094468
                    7      2       0.0179574
                    8      2       0.0349787
                    9      2       0.0690213
                   10      2       0.0860426
                   11      2       0.0945532
                   12      2       0.0988085
                   13      2       0.1009362
                   14      2       0.1020000
     Exposed Backing

   2 WALL (DEFAULT)
     Material List
          1  GYPSUM PLASTER
     Layer  1
        Thickness   (m):  0.01200
        Density (kg/m3):  1440.00
        GYPSUM PLASTER, Mass fraction:    1.00
     Total surface density    17.280 kg/m2
     Reaction products considered from the first  0.50 layers.
     Solid Phase Node, Layer, Coordinates(m):
                    0      1       0.0000000
                    1      1       0.0005455
                    2      1       0.0016364
                    3      1       0.0038182
                    4      1       0.0081818
                    5      1       0.0103636
                    6      1       0.0114545
                    7      1       0.0120000
     Exposed Backing

   3 ignitor
     Wall or Vent Temperature (C)  1000.0
     Convection length scale (m)  2.00E-02

   4 OPEN
     Passive Vent to Atmosphere

   5 MIRROR
     Symmetry Plane

   6 INTERPOLATED

   7 PERIODIC

   8 HVAC

   9 MASSLESS TRACER

  10 DROPLET

  11 EVACUATION_OUTFLOW
     Normal Velocity (m/s)         0.000

  12 MASSLESS TARGET

  13 PERIODIC FLOW ONLY


 Device Coordinates

     1 Coords:      2.550000      4.400000      0.750000, Make: null, ID: temp, Quantity: WALL TEMPERATURE
     2 Coords:      2.550000      4.400000      0.750000, Make: null, ID: burn, Quantity: BURNING RATE
     3 Coords:      2.550000      4.400000      0.750000, Make: null, ID: rad, Quantity: RADIATIVE HEAT FLUX
     4 Coords:      2.550000      4.400000      0.750000, Make: null, ID: gauge, Quantity: GAUGE HEAT FLUX
     5 Coords:      2.550000      4.400000      0.750000, Make: null, ID: con, Quantity: CONVECTIVE HEAT FLUX
     6 Coords:      2.550000      4.350000      0.750000, Make: null, ID: gas, Quantity: TEMPERATURE
     7 Coords:      2.550000      4.350000      0.750000, Make: null, ID: hrrpuv, Quantity: HRRPUV
     8 Coords:      2.550000      4.350000      0.750000, Make: null, ID: qr, Quantity: RADIATION LOSS
     9 Coords:      2.550000      4.350000      0.750000, Make: null, ID: U, Quantity: INTEGRATED INTENSITY


 Slice File Information, Mesh     1

   Sampling Interval (s)             0.600

   1 Nodes:  14  14   0  10   0  24, Quantity: TEMPERATURE
   2 Nodes:  14  14   0  10   0  24, Quantity: U-VELOCITY
   3 Nodes:  14  14   0  10   0  24, Quantity: V-VELOCITY
   4 Nodes:  14  14   0  10   0  24, Quantity: W-VELOCITY
   5 Nodes:  15  15   0  10   0  24, Quantity: HRRPUV
   6 Nodes:  15  15   0  10   0  24, Quantity: RADIATION LOSS
   7 Nodes:  15  15   0  10   0  24, Quantity: VISCOSITY
   8 Nodes:   0  24   8   8   0  24, Quantity: TEMPERATURE
   9 Nodes:   0  24   8   8   0  24, Quantity: U-VELOCITY
  10 Nodes:   0  24   8   8   0  24, Quantity: V-VELOCITY
  11 Nodes:   0  24   8   8   0  24, Quantity: W-VELOCITY
  12 Nodes:   0  24   9   9   0  24, Quantity: HRRPUV
  13 Nodes:   0  24   9   9   0  24, Quantity: RADIATION LOSS


 Boundary File Information

   Sampling Interval (s)             1.200

   1 Quantity: RADIATIVE HEAT FLUX
   2 Quantity: CONVECTIVE HEAT FLUX
   3 Quantity: NET HEAT FLUX
   4 Quantity: WALL TEMPERATURE
   5 Quantity: BURNING RATE


 Radiation Model Information

   Number of control angles  104
   Time step increment         3
   Angle increment             5
   Theta band N_phi   Solid angle
     1:        4     0.120
     2:       12     0.114
     3:       16     0.127
     4:       20     0.120
     5:       20     0.120
     6:       16     0.127
     7:       12     0.114
     8:        4     0.120
   Using gray gas absorption.
   Mean beam length  0.100 m
 
 

 Run Time Diagnostics

       Time Step       1   March  7, 2021  22:29:32
       Step Size:    0.102E+00 s, Total Time:       0.10 s
       Pressure Iterations:      1
       Maximum Velocity Error:  0.18E-02 on Mesh   1 at (   4   3   7)
       Maximum Pressure Error:  0.12E-03 on Mesh   1 at (  13  10  24)
       ---------------------------------------------------------------
       Max CFL number:  0.18E-01 at (  14,   3,  11)
       Max divergence:  0.16E-01 at (  15,   8,   7)readlines
       Min divergence: -0.93E-06 at (  23,   4,  18)
       Max VN number:   0.14E-01 at (  12,   4,   9)
       No. of Lagrangian Particles:             3
       Radiation Loss to Boundaries:         0.001 kW
 
       Time Step       2   March  7, 2021  22:29:32
       Step Size:    0.102E+00 s, Total Time:       0.20 s
       Pressure Iterations:      1
       Maximum Velocity Error:  0.13E-02 on Mesh   1 at (   3   3   2)
       Maximum Pressure Error:  0.17E-02 on Mesh   1 at (  14   8   7)
       ---------------------------------------------------------------
       Max CFL number:  0.18E-01 at (  14,   3,  11)
       Max divergence:  0.40E-01 at (  15,   8,   7)
       Min divergence: -0.93E-06 at (  23,   4,  18)
       Max VN number:   0.14E-01 at (  12,   4,   9)
       No. of Lagrangian Particles:             3
       Radiation Loss to Boundaries:         0.001 kW
 
       Time Step       3   March  7, 2021  22:29:32
       Step Size:    0.102E+00 s, Total Time:       0.31 s
       Pressure Iterations:      1
       Maximum Velocity Error:  0.98E-03 on Mesh   1 at (   5   8   6)
       Maximum Pressure Error:  0.72E-02 on Mesh   1 at (  16   8   7)
       ---------------------------------------------------------------
       Max CFL number:  0.18E-01 at (  14,   3,  11)
       Max divergence:  0.67E-01 at (  15,   8,   7)
       Min divergence: -0.93E-06 at (  23,   4,  18)
       Max VN number:   0.14E-01 at (  12,   4,   9)
       No. of Lagrangian Particles:             3
       Radiation Loss to Boundaries:         0.001 kW
 
       Time Step       4   March  7, 2021  22:29:32
       Step Size:    0.102E+00 s, Total Time:       0.41 s
       Pressure Iterations:      1
       Maximum Velocity Error:  0.41E-03 on Mesh   1 at (  14   9   7)
       Maximum Pressure Error:  0.16E-01 on Mesh   1 at (  16   8   7)
       ---------------------------------------------------------------
       Max CFL number:  0.22E-01 at (  15,   8,   7)
       Max divergence:  0.94E-01 at (  15,   8,   7)
       Min divergence: -0.89E-06 at (  23,   4,  18)
       Max VN number:   0.14E-01 at (  12,   4,   9)
       No. of Lagrangian Particles:             3
       Radiation Loss to Boundaries:         0.004 kW
 
       Time Step       5   March  7, 2021  22:29:32
       Step Size:    0.102E+00 s, Total Time:       0.51 s
       Pressure Iterations:      1
       Maximum Velocity Error:  0.73E-03 on Mesh   1 at (  16   9   7)
       Maximum Pressure Error:  0.22E-01 on Mesh   1 at (  16   8   7)
       ---------------------------------------------------------------
       Max CFL number:  0.29E-01 at (  15,   8,   7)
       Max divergence:  0.12E+00 at (  15,   8,   7)
       Min divergence: -0.88E-06 at (  23,   4,  18)
       Max VN number:   0.14E-01 at (  12,   4,   9)
       No. of Lagrangian Particles:             3
       Radiation Loss to Boundaries:         0.004 kW
 
       Time Step       6   March  7, 2021  22:29:32
       Step Size:    0.102E+00 s, Total Time:       0.61 s
       Pressure Iterations:      1
       Maximum Velocity Error:  0.10E-02 on Mesh   1 at (  15   9   7)
       Maximum Pressure Error:  0.22E-01 on Mesh   1 at (  16   8   7)
       ---------------------------------------------------------------
       Max CFL number:  0.39E-01 at (  15,   8,   7)
       Max divergence:  0.15E+00 at (  15,   8,   7)
       Min divergence: -0.88E-06 at (  23,   4,  18)
       Max VN number:   0.14E-01 at (  12,   4,   9)
       No. of Lagrangian Particles:             3
       Radiation Loss to Boundaries:         0.003 kW
 
       Time Step       7   March  7, 2021  22:29:32
       Step Size:    0.102E+00 s, Total Time:       0.71 s
       Pressure Iterations:      1
       Maximum Velocity Error:  0.12E-02 on Mesh   1 at (  15   9   7)
       Maximum Pressure Error:  0.17E-01 on Mesh   1 at (  16   8   7)
       ---------------------------------------------------------------
       Max CFL number:  0.51E-01 at (  15,   8,   7)
       Max divergence:  0.17E+00 at (  15,   8,   7)
       Min divergence: -0.87E-06 at (  23,   4,  18)
       Max VN number:   0.14E-01 at (  12,   4,   9)
       No. of Lagrangian Particles:             3
       Radiation Loss to Boundaries:         0.011 kW
 
       Time Step       8   March  7, 2021  22:29:32
       Step Size:    0.102E+00 s, Total Time:       0.82 s
       Pressure Iterations:      1
       Maximum Velocity Error:  0.15E-02 on Mesh   1 at (  15   9   7)
       Maximum Pressure Error:  0.92E-02 on Mesh   1 at (  15   8   7)
       ---------------------------------------------------------------
       Max CFL number:  0.66E-01 at (  15,   8,   7)
       Max divergence:  0.19E+00 at (  15,   8,   7)
       Min divergence: -0.86E-06 at (  23,   4,  18)
       Max VN number:   0.14E-01 at (  12,   4,   9)
       No. of Lagrangian Particles:             3
       Radiation Loss to Boundaries:         0.011 kW
 
       Time Step       9   March  7, 2021  22:29:32
       Step Size:    0.102E+00 s, Total Time:       0.92 s
       Pressure Iterations:      1
       Maximum Velocity Error:  0.17E-02 on Mesh   1 at (  15   9   7)
       Maximum Pressure Error:  0.44E-01 on Mesh   1 at (  15   8   7)
       ---------------------------------------------------------------
       Max CFL number:  0.86E-01 at (  15,   8,   7)
       Max divergence:  0.21E+00 at (  14,   8,   7)
       Min divergence: -0.86E-06 at (  23,   4,  18)
       Max VN number:   0.14E-01 at (  14,   7,   8)
       No. of Lagrangian Particles:             3
       Radiation Loss to Boundaries:         0.011 kW
 
       Time Step      10   March  7, 2021  22:29:32
       Step Size:    0.102E+00 s, Total Time:       1.02 s
       Pressure Iterations:      1
       Maximum Velocity Error:  0.18E-02 on Mesh   1 at (  15   9   7)
       Maximum Pressure Error:  0.83E-01 on Mesh   1 at (  15   8   7)
       ---------------------------------------------------------------
       Max CFL number:  0.11E+00 at (  15,   8,   7)
       Max divergence:  0.22E+00 at (  14,   8,   7)
       Min divergence: -0.71E-06 at (   2,   4,   9)
       Max VN number:   0.18E-01 at (  14,   7,   8)
       No. of Lagrangian Particles:             3
       Radiation Loss to Boundaries:         0.026 kW
 
       Time Step      20   March  7, 2021  22:29:33
       Step Size:    0.102E+00 s, Total Time:       2.04 s
       Pressure Iterations:      1
       Maximum Velocity Error:  0.15E-01 on Mesh   1 at (  15   9  10)
       Maximum Pressure Error:  0.12E+01 on Mesh   1 at (  15   8   7)
       ---------------------------------------------------------------
       Max CFL number:  0.71E+00 at (  15,   8,   9)
       Max divergence:  0.43E+00 at (  14,   8,   7)
       Min divergence: -0.54E-01 at (  15,   8,   9)
       Max VN number:   0.21E+00 at (  15,   8,   7)
       No. of Lagrangian Particles:             3
       Radiation Loss to Boundaries:         0.111 kW
 
       Time Step      30   March  7, 2021  22:29:33
       Step Size:    0.754E-01 s, Total Time:       2.90 s
       Pressure Iterations:      1
       Maximum Velocity Error:  0.34E-01 on Mesh   1 at (  15   9  12)
       Maximum Pressure Error:  0.11E+01 on Mesh   1 at (  15   8  14)
       ---------------------------------------------------------------
       Max CFL number:  0.98E+00 at (  15,   8,  13)
       Max divergence:  0.40E+00 at (  16,   8,   7)
       Min divergence: -0.13E+00 at (  15,   8,  14)
       Max VN number:   0.49E+00 at (  15,   8,  13)
       No. of Lagrangian Particles:             3
       Radiation Loss to Boundaries:         0.175 kW
 
       Time Step      40   March  7, 2021  22:29:34
       Step Size:    0.754E-01 s, Total Time:       3.66 s
       Pressure Iterations:      1
       Maximum Velocity Error:  0.15E-01 on Mesh   1 at (  15   9  12)
       Maximum Pressure Error:  0.77E+00 on Mesh   1 at (  15   8  10)
       ---------------------------------------------------------------
       Max CFL number:  0.97E+00 at (  15,   8,  14)
       Max divergence:  0.48E+00 at (  14,   8,   7)
       Min divergence: -0.87E-01 at (  15,   8,   8)
       Max VN number:   0.43E+00 at (  15,   8,  18)
       No. of Lagrangian Particles:             3
       Radiation Loss to Boundaries:         0.206 kW
 
       Time Step      50   March  7, 2021  22:29:34
       Step Size:    0.665E-01 s, Total Time:       4.39 s
       Pressure Iterations:      1
       Maximum Velocity Error:  0.14E-01 on Mesh   1 at (  15   9  12)
       Maximum Pressure Error:  0.62E+00 on Mesh   1 at (  15   8  12)
       ---------------------------------------------------------------
       Max CFL number:  0.85E+00 at (  15,   8,  19)
       Max divergence:  0.45E+00 at (  16,   8,   7)
       Min divergence: -0.11E+00 at (  15,   8,  13)
       Max VN number:   0.36E+00 at (  15,   8,  22)
       No. of Lagrangian Particles:             3
       Radiation Loss to Boundaries:         0.216 kW
 
       Time Step      60   March  7, 2021  22:29:35
       Step Size:    0.665E-01 s, Total Time:       5.06 s
       Pressure Iterations:      1
       Maximum Velocity Error:  0.19E-01 on Mesh   1 at (  15   9  12)
       Maximum Pressure Error:  0.10E+01 on Mesh   1 at (  15   8  11)
       ---------------------------------------------------------------
       Max CFL number:  0.85E+00 at (  15,   8,  19)
       Max divergence:  0.47E+00 at (  14,   8,   7)
       Min divergence: -0.11E+00 at (  15,   8,   8)
       Max VN number:   0.53E+00 at (  16,   8,  24)
       No. of Lagrangian Particles:             3
       Total Heat Release Rate:              0.013 kW
       Radiation Loss to Boundaries:         0.223 kW
 
       Time Step      70   March  7, 2021  22:29:35
       Step Size:    0.732E-01 s, Total Time:       5.76 s
       Pressure Iterations:      1
       Maximum Velocity Error:  0.13E-01 on Mesh   1 at (  14   9  12)
       Maximum Pressure Error:  0.52E+00 on Mesh   1 at (  14   8  24)
       ---------------------------------------------------------------
       Max CFL number:  0.90E+00 at (  15,   8,  13)
       Max divergence:  0.54E+00 at (  14,   8,   7)
       Min divergence: -0.19E+00 at (  15,   8,  13)
       Max VN number:   0.41E+00 at (  15,   8,  13)
       No. of Lagrangian Particles:             3
       Total Heat Release Rate:              0.118 kW
       Radiation Loss to Boundaries:         0.205 kW
 
       Time Step      80   March  7, 2021  22:29:35
       Step Size:    0.732E-01 s, Total Time:       6.49 s
       Pressure Iterations:      1
       Maximum Velocity Error:  0.17E-01 on Mesh   1 at (  15   9  11)
       Maximum Pressure Error:  0.13E+01 on Mesh   1 at (  15   8  10)
       ---------------------------------------------------------------
       Max CFL number:  0.88E+00 at (  14,   8,  16)
       Max divergence:  0.74E+00 at (  15,   8,   7)
       Min divergence: -0.18E+00 at (  15,   8,   8)
       Max VN number:   0.53E+00 at (  16,   8,  24)
       No. of Lagrangian Particles:             3
       Total Heat Release Rate:              0.508 kW
       Radiation Loss to Boundaries:         0.043 kW
 
       Time Step      90   March  7, 2021  22:29:36
       Step Size:    0.636E-01 s, Total Time:       7.18 s
       Pressure Iterations:      1
       Maximum Velocity Error:  0.14E-01 on Mesh   1 at (  15   9  12)
       Maximum Pressure Error:  0.20E+01 on Mesh   1 at (  15   8  12)
       ---------------------------------------------------------------
       Max CFL number:  0.94E+00 at (  16,   8,  18)
       Max divergence:  0.11E+01 at (  15,   8,   7)
       Min divergence: -0.28E+00 at (  15,   8,   8)
       Max VN number:   0.43E+00 at (  15,   8,  13)
       No. of Lagrangian Particles:             3
       Total Heat Release Rate:              1.122 kW
       Radiation Loss to Boundaries:        -0.091 kW
 
       Time Step     100   March  7, 2021  22:29:36
       Step Size:    0.636E-01 s, Total Time:       7.81 s
       Pressure Iterations:      1
       Maximum Velocity Error:  0.35E-01 on Mesh   1 at (  16   9  11)
       Maximum Pressure Error:  0.44E+01 on Mesh   1 at (  16   8  11)
       ---------------------------------------------------------------
       Max CFL number:  0.99E+00 at (  14,   8,  15)
       Max divergence:  0.14E+01 at (  15,   8,   7)
       Min divergence: -0.30E+00 at (  15,   8,   8)
       Max VN number:   0.48E+00 at (  16,   8,  24)
       No. of Lagrangian Particles:             3
       Total Heat Release Rate:              1.657 kW
       Radiation Loss to Boundaries:        -0.248 kW
 
       Time Step     200   March  7, 2021  22:29:40
       Step Size:    0.451E-01 s, Total Time:      12.46 s
       Pressure Iterations:      1
       Maximum Velocity Error:  0.44E-02 on Mesh   1 at (  14   9  12)
       Maximum Pressure Error:  0.40E+01 on Mesh   1 at (  14   8  24)
       ---------------------------------------------------------------
       Max CFL number:  0.92E+00 at (  16,   8,  19)
       Max divergence:  0.23E+01 at (  15,   8,   7)
       Min divergence: -0.47E+00 at (  15,   8,  13)
       Max VN number:   0.44E+00 at (  16,   8,  24)
       No. of Lagrangian Particles:             3
       Total Heat Release Rate:              3.434 kW
       Radiation Loss to Boundaries:        -0.714 kW
 
       Time Step     300   March  7, 2021  22:29:44
       Step Size:    0.451E-01 s, Total Time:      16.97 s
       Pressure Iterations:      1
       Maximum Velocity Error:  0.28E-02 on Mesh   1 at (  14   9  12)
       Maximum Pressure Error:  0.16E+01 on Mesh   1 at (  14   8  24)
       ---------------------------------------------------------------
       Max CFL number:  0.97E+00 at (  15,   8,  19)
       Max divergence:  0.22E+01 at (  15,   8,   7)
       Min divergence: -0.54E+00 at (  15,   8,  13)
       Max VN number:   0.54E+00 at (  16,   8,  24)
       No. of Lagrangian Particles:             3
       Total Heat Release Rate:              3.774 kW
       Radiation Loss to Boundaries:        -0.761 kW
 
       Time Step     400   March  7, 2021  22:29:48
       Step Size:    0.405E-01 s, Total Time:      21.43 s
       Pressure Iterations:      1
       Maximum Velocity Error:  0.11E-02 on Mesh   1 at (  14   9  10)
       Maximum Pressure Error:  0.13E+01 on Mesh   1 at (  14   8  24)
       ---------------------------------------------------------------
       Max CFL number:  0.89E+00 at (  15,   8,  21)
       Max divergence:  0.23E+01 at (  15,   8,   7)
       Min divergence: -0.58E+00 at (  15,   8,  13)
       Max VN number:   0.50E+00 at (  16,   8,  24)
       No. of Lagrangian Particles:             3
       Total Heat Release Rate:              4.177 kW
       Radiation Loss to Boundaries:        -0.861 kW
 
       Time Step     500   March  7, 2021  22:29:52
       Step Size:    0.405E-01 s, Total Time:      25.48 s
       Pressure Iterations:      1
       Maximum Velocity Error:  0.38E-02 on Mesh   1 at (  16   9  12)
       Maximum Pressure Error:  0.89E+00 on Mesh   1 at (  16   8  12)
       ---------------------------------------------------------------
       Max CFL number:  0.90E+00 at (  15,   8,  21)
       Max divergence:  0.25E+01 at (  15,   8,   7)
       Min divergence: -0.61E+00 at (  15,   8,  13)
       Max VN number:   0.48E+00 at (  16,   8,  24)
       No. of Lagrangian Particles:             3
       Total Heat Release Rate:              4.433 kW
       Radiation Loss to Boundaries:        -0.948 kW
 
       Time Step     600   March  7, 2021  22:29:56
       Step Size:    0.405E-01 s, Total Time:      29.53 s
       Pressure Iterations:      1
       Maximum Velocity Error:  0.22E-02 on Mesh   1 at (  16   9  12)
       Maximum Pressure Error:  0.65E+00 on Mesh   1 at (   2  10  22)
       ---------------------------------------------------------------
       Max CFL number:  0.91E+00 at (  15,   8,  21)
       Max divergence:  0.23E+01 at (  15,   8,   7)
       Min divergence: -0.62E+00 at (  15,   8,  13)
       Max VN number:   0.49E+00 at (  16,   8,  24)
       No. of Lagrangian Particles:             3
       Total Heat Release Rate:              4.476 kW
       Radiation Loss to Boundaries:        -0.947 kW
 
       Time Step     700   March  7, 2021  22:30:00
       Step Size:    0.405E-01 s, Total Time:      33.58 s
       Pressure Iterations:      1
       Maximum Velocity Error:  0.42E-02 on Mesh   1 at (  14   9  12)
       Maximum Pressure Error:  0.11E+01 on Mesh   1 at (  16   9  24)
       ---------------------------------------------------------------
       Max CFL number:  0.89E+00 at (  15,   8,  19)
       Max divergence:  0.25E+01 at (  15,   8,   7)
       Min divergence: -0.58E+00 at (  15,   8,  13)
       Max VN number:   0.47E+00 at (  16,   8,  24)
       No. of Lagrangian Particles:             3
       Total Heat Release Rate:              4.630 kW
       Radiation Loss to Boundaries:        -0.975 kW
 
       Time Step     800   March  7, 2021  22:30:04
       Step Size:    0.405E-01 s, Total Time:      37.63 s
       Pressure Iterations:      1
       Maximum Velocity Error:  0.14E-02 on Mesh   1 at (  16   9  12)
       Maximum Pressure Error:  0.14E+01 on Mesh   1 at (  15   7  24)
       ---------------------------------------------------------------
       Max CFL number:  0.91E+00 at (  15,   8,  19)
       Max divergence:  0.28E+01 at (  15,   8,   7)
       Min divergence: -0.63E+00 at (  15,   8,  13)
       Max VN number:   0.53E+00 at (  15,   8,  24)
       No. of Lagrangian Particles:             3
       Total Heat Release Rate:              4.871 kW
       Radiation Loss to Boundaries:        -1.045 kW
 
       Time Step     900   March  7, 2021  22:30:08
       Step Size:    0.405E-01 s, Total Time:      41.68 s
       Pressure Iterations:      1
       Maximum Velocity Error:  0.16E-02 on Mesh   1 at (  16   9  12)
       Maximum Pressure Error:  0.10E+01 on Mesh   1 at (  15   9  24)
       ---------------------------------------------------------------
       Max CFL number:  0.91E+00 at (  15,   8,  19)
       Max divergence:  0.31E+01 at (  15,   8,   7)
       Min divergence: -0.59E+00 at (  15,   8,  13)
       Max VN number:   0.50E+00 at (  15,   8,  24)
       No. of Lagrangian Particles:             3
       Total Heat Release Rate:              5.532 kW
       Radiation Loss to Boundaries:        -1.216 kW
 
       Time Step    1000   March  7, 2021  22:30:12
       Step Size:    0.357E-01 s, Total Time:      45.57 s
       Pressure Iterations:      1
       Maximum Velocity Error:  0.48E-02 on Mesh   1 at (  15   9  12)
       Maximum Pressure Error:  0.39E+01 on Mesh   1 at (  15   8   8)
       ---------------------------------------------------------------
       Max CFL number:  0.92E+00 at (  15,   8,  15)
       Max divergence:  0.45E+01 at (  15,   8,   7)
       Min divergence: -0.98E+00 at (  15,   8,  13)
       Max VN number:   0.48E+00 at (  14,   8,  24)
       No. of Lagrangian Particles:             3
       Total Heat Release Rate:              7.900 kW
       Radiation Loss to Boundaries:        -1.955 kW
 
       Time Step    1100   March  7, 2021  22:30:16
       Step Size:    0.258E-01 s, Total Time:      48.70 s
       Pressure Iterations:      1
       Maximum Velocity Error:  0.28E-02 on Mesh   1 at (  16   9  12)
       Maximum Pressure Error:  0.57E+01 on Mesh   1 at (  15   8   7)
       ---------------------------------------------------------------
       Max CFL number:  0.84E+00 at (  15,   8,  17)
       Max divergence:  0.62E+01 at (  15,   8,   7)
       Min divergence: -0.15E+01 at (  15,   8,  13)
       Max VN number:   0.46E+00 at (  16,   8,  24)
       No. of Lagrangian Particles:             3
       Total Heat Release Rate:             12.437 kW
       Radiation Loss to Boundaries:        -3.172 kW
 
       Time Step    1200   March  7, 2021  22:30:19
       Step Size:    0.258E-01 s, Total Time:      51.28 s
       Pressure Iterations:      1
       Maximum Velocity Error:  0.68E-02 on Mesh   1 at (  16   9  12)
       Maximum Pressure Error:  0.76E+01 on Mesh   1 at (  14   8  24)
       ---------------------------------------------------------------
       Max CFL number:  0.79E+00 at (  15,   8,  21)
       Max divergence:  0.52E+01 at (  15,   8,   7)
       Min divergence: -0.14E+01 at (  15,   8,  13)
       Max VN number:   0.49E+00 at (  16,   8,  24)
       No. of Lagrangian Particles:             3
       Total Heat Release Rate:             11.498 kW
       Radiation Loss to Boundaries:        -2.832 kW
 
       Time Step    1300   March  7, 2021  22:30:23
       Step Size:    0.284E-01 s, Total Time:      54.13 s
       Pressure Iterations:      1
       Maximum Velocity Error:  0.15E-01 on Mesh   1 at (  15   9  12)
       Maximum Pressure Error:  0.36E+02 on Mesh   1 at (  16   8   7)
       ---------------------------------------------------------------
       Max CFL number:  0.90E+00 at (  15,   8,  21)
       Max divergence:  0.57E+01 at (  15,   8,   7)
       Min divergence: -0.13E+01 at (  15,   8,  13)
       Max VN number:   0.52E+00 at (  16,   8,  24)
       No. of Lagrangian Particles:             3
       Total Heat Release Rate:             12.525 kW
       Radiation Loss to Boundaries:        -3.267 kW
 
       Time Step    1400   March  7, 2021  22:30:27
       Step Size:    0.253E-01 s, Total Time:      56.93 s
       Pressure Iterations:      1
       Maximum Velocity Error:  0.19E-01 on Mesh   1 at (  15   9  12)
       Maximum Pressure Error:  0.15E+02 on Mesh   1 at (  15   8  12)
       ---------------------------------------------------------------
       Max CFL number:  0.88E+00 at (  15,   8,  21)
       Max divergence:  0.63E+01 at (  16,   8,   7)
       Min divergence: -0.12E+01 at (  15,   8,  13)
       Max VN number:   0.49E+00 at (  17,   8,  24)
       No. of Lagrangian Particles:             3
       Total Heat Release Rate:             18.258 kW
       Radiation Loss to Boundaries:        -4.741 kW
 
       Time Step    1500   March  7, 2021  22:30:31
       Step Size:    0.226E-01 s, Total Time:      59.39 s
       Pressure Iterations:      1
       Maximum Velocity Error:  0.68E-02 on Mesh   1 at (  14   9  12)
       Maximum Pressure Error:  0.19E+02 on Mesh   1 at (  15   8  24)
       ---------------------------------------------------------------
       Max CFL number:  0.88E+00 at (  15,   8,  21)
       Max divergence:  0.59E+01 at (  16,   8,   7)
       Min divergence: -0.15E+01 at (  15,   8,  14)
       Max VN number:   0.50E+00 at (  16,   8,  24)
       No. of Lagrangian Particles:             3
       Total Heat Release Rate:             19.773 kW
       Radiation Loss to Boundaries:        -5.065 kW
 
       Time Step    1600   March  7, 2021  22:30:35
       Step Size:    0.223E-01 s, Total Time:      61.76 s
       Pressure Iterations:      1
       Maximum Velocity Error:  0.13E-01 on Mesh   1 at (  16   9  11)
       Maximum Pressure Error:  0.18E+02 on Mesh   1 at (  16   8  11)
       ---------------------------------------------------------------
       Max CFL number:  0.88E+00 at (  15,   8,  15)
       Max divergence:  0.64E+01 at (  14,   8,   7)
       Min divergence: -0.19E+01 at (  15,   8,  14)
       Max VN number:   0.50E+00 at (  16,   8,  24)
       No. of Lagrangian Particles:             3
       Total Heat Release Rate:             24.861 kW
       Radiation Loss to Boundaries:        -6.466 kW
 
       Time Step    1700   March  7, 2021  22:30:38
       Step Size:    0.245E-01 s, Total Time:      64.00 s
       Pressure Iterations:      1
       Maximum Velocity Error:  0.50E-02 on Mesh   1 at (  15   9  10)
       Maximum Pressure Error:  0.13E+02 on Mesh   1 at (  14   8  24)
       ---------------------------------------------------------------
       Max CFL number:  0.92E+00 at (  15,   8,  15)
       Max divergence:  0.72E+01 at (  16,   8,   7)
       Min divergence: -0.16E+01 at (  15,   8,  14)
       Max VN number:   0.54E+00 at (  14,   8,  24)
       No. of Lagrangian Particles:             3
       Total Heat Release Rate:             25.642 kW
       Radiation Loss to Boundaries:        -7.098 kW
 
       Time Step    1800   March  7, 2021  22:30:42
       Step Size:    0.179E-01 s, Total Time:      65.83 s
       Pressure Iterations:      2
       Maximum Velocity Error:  0.11E-01 on Mesh   1 at (  14   9  12)
       Maximum Pressure Error:  0.12E+03 on Mesh   1 at (  14   8  14)
       ---------------------------------------------------------------
       Max CFL number:  0.89E+00 at (  14,   8,  14)
       Max divergence:  0.78E+01 at (  15,   8,   7)
       Min divergence: -0.20E+01 at (  14,   8,  14)
       Max VN number:   0.51E+00 at (  16,   7,  24)
       No. of Lagrangian Particles:             3
       Total Heat Release Rate:             25.185 kW
       Radiation Loss to Boundaries:        -6.628 kW
 
       Time Step    1900   March  7, 2021  22:30:46
       Step Size:    0.190E-01 s, Total Time:      67.55 s
       Pressure Iterations:      1
       Maximum Velocity Error:  0.40E-01 on Mesh   1 at (  16   9  12)
       Maximum Pressure Error:  0.15E+03 on Mesh   1 at (  16   8  14)
       ---------------------------------------------------------------
       Max CFL number:  0.85E+00 at (  16,   8,  13)
       Max divergence:  0.72E+01 at (  16,   8,   7)
       Min divergence: -0.22E+01 at (  15,   8,  15)
       Max VN number:   0.62E+00 at (  13,   8,  24)
       No. of Lagrangian Particles:             3
       Total Heat Release Rate:             32.729 kW
       Radiation Loss to Boundaries:        -8.462 kW
 
       Time Step    2000   March  7, 2021  22:30:50
       Step Size:    0.231E-01 s, Total Time:      69.87 s
       Pressure Iterations:      1
       Maximum Velocity Error:  0.20E-01 on Mesh   1 at (  14   9  12)
       Maximum Pressure Error:  0.99E+02 on Mesh   1 at (  14   8   7)
       ---------------------------------------------------------------
       Max CFL number:  0.97E+00 at (  14,   8,  14)
       Max divergence:  0.73E+01 at (  16,   8,   7)
       Min divergence: -0.27E+01 at (  14,   8,  15)
       Max VN number:   0.47E+00 at (  14,   8,  24)
       No. of Lagrangian Particles:             3
       Total Heat Release Rate:             33.317 kW
       Radiation Loss to Boundaries:        -9.337 kW
 
       Time Step    2100   March  7, 2021  22:30:53
       Step Size:    0.205E-01 s, Total Time:      72.04 s
       Pressure Iterations:      1
       Maximum Velocity Error:  0.12E-01 on Mesh   1 at (  16   9  12)
       Maximum Pressure Error:  0.14E+02 on Mesh   1 at (  15   8  24)
       ---------------------------------------------------------------
       Max CFL number:  0.83E+00 at (  15,   8,  21)
       Max divergence:  0.59E+01 at (  15,   8,   7)
       Min divergence: -0.15E+01 at (  15,   8,  14)
       Max VN number:   0.48E+00 at (  14,   8,  24)
       No. of Lagrangian Particles:             3
       Total Heat Release Rate:             20.733 kW
       Radiation Loss to Boundaries:        -5.017 kW
 
       Time Step    2200   March  7, 2021  22:30:57
       Step Size:    0.198E-01 s, Total Time:      74.34 s
       Pressure Iterations:      1
       Maximum Velocity Error:  0.15E-01 on Mesh   1 at (  15   9   7)
       Maximum Pressure Error:  0.29E+02 on Mesh   1 at (  15   8   7)
       ---------------------------------------------------------------
       Max CFL number:  0.82E+00 at (  15,   8,  17)
       Max divergence:  0.80E+01 at (  16,   8,   7)
       Min divergence: -0.18E+01 at (  15,   8,  14)
       Max VN number:   0.44E+00 at (  16,   8,  24)
       No. of Lagrangian Particles:             3
       Total Heat Release Rate:             29.913 kW
       Radiation Loss to Boundaries:        -8.413 kW
 
       Time Step    2300   March  7, 2021  22:31:01
       Step Size:    0.237E-01 s, Total Time:      76.59 s
       Pressure Iterations:      1
       Maximum Velocity Error:  0.51E-02 on Mesh   1 at (  15   9  12)
       Maximum Pressure Error:  0.98E+01 on Mesh   1 at (  14   8  24)
       ---------------------------------------------------------------
       Max CFL number:  0.87E+00 at (  15,   8,  15)
       Max divergence:  0.68E+01 at (  16,   8,   7)
       Min divergence: -0.15E+01 at (  15,   8,  14)
       Max VN number:   0.47E+00 at (  14,   8,  24)
       No. of Lagrangian Particles:             3
       Total Heat Release Rate:             22.178 kW
       Radiation Loss to Boundaries:        -5.783 kW
 
       Time Step    2400   March  7, 2021  22:31:04
       Step Size:    0.148E-01 s, Total Time:      78.86 s
       Pressure Iterations:      2
       Maximum Velocity Error:  0.23E-01 on Mesh   1 at (  14   9   8)
       Maximum Pressure Error:  0.79E+03 on Mesh   1 at (  14   8   7)
       ---------------------------------------------------------------
       Max CFL number:  0.88E+00 at (  14,   8,  15)
       Max divergence:  0.12E+02 at (  14,   8,   7)
       Min divergence: -0.47E+01 at (  14,   8,  16)
       Max VN number:   0.40E+00 at (  14,   8,  13)
       No. of Lagrangian Particles:             3
       Total Heat Release Rate:             72.909 kW
       Radiation Loss to Boundaries:       -18.572 kW
 
       Time Step    2500   March  7, 2021  22:31:08
       Step Size:    0.197E-01 s, Total Time:      80.60 s
       Pressure Iterations:      1
       Maximum Velocity Error:  0.28E-01 on Mesh   1 at (  14   9  12)
       Maximum Pressure Error:  0.49E+02 on Mesh   1 at (  16   8   7)
       ---------------------------------------------------------------
       Max CFL number:  0.82E+00 at (  15,   8,  20)
       Max divergence:  0.84E+01 at (  16,   8,   7)
       Min divergence: -0.16E+01 at (  15,   8,  15)
       Max VN number:   0.41E+00 at (  17,   8,  24)
       No. of Lagrangian Particles:             3
       Total Heat Release Rate:             24.725 kW
       Radiation Loss to Boundaries:        -6.058 kW
 
       Time Step    2600   March  7, 2021  22:31:12
       Step Size:    0.201E-01 s, Total Time:      82.84 s
       Pressure Iterations:      1
       Maximum Velocity Error:  0.13E-01 on Mesh   1 at (  15   9  10)
       Maximum Pressure Error:  0.10E+03 on Mesh   1 at (  14   8   7)
       ---------------------------------------------------------------
       Max CFL number:  0.98E+00 at (  15,   8,  15)
       Max divergence:  0.11E+02 at (  14,   8,   7)
       Min divergence: -0.24E+01 at (  15,   8,  16)
       Max VN number:   0.55E+00 at (  14,   8,  24)
       No. of Lagrangian Particles:             3
       Total Heat Release Rate:             48.766 kW
       Radiation Loss to Boundaries:       -13.530 kW
 
       Time Step    2700   March  7, 2021  22:31:15
       Step Size:    0.151E-01 s, Total Time:      84.40 s
       Pressure Iterations:      1
       Maximum Velocity Error:  0.23E-01 on Mesh   1 at (  16   9  12)
       Maximum Pressure Error:  0.77E+02 on Mesh   1 at (  16   8  19)
       ---------------------------------------------------------------
       Max CFL number:  0.78E+00 at (  16,   8,  17)
       Max divergence:  0.59E+01 at (  15,   8,   7)
       Min divergence: -0.15E+01 at (  16,   8,  15)
       Max VN number:   0.33E+00 at (  13,   8,  24)
       No. of Lagrangian Particles:             3
       Total Heat Release Rate:             23.075 kW
       Radiation Loss to Boundaries:        -5.629 kW
 
       Time Step    2800   March  7, 2021  22:31:19
       Step Size:    0.235E-01 s, Total Time:      86.75 s
       Pressure Iterations:      1
       Maximum Velocity Error:  0.11E-01 on Mesh   1 at (  16   8   6)
       Maximum Pressure Error:  0.16E+02 on Mesh   1 at (  15   8   7)
       ---------------------------------------------------------------
       Max CFL number:  0.96E+00 at (  15,   8,  19)
       Max divergence:  0.76E+01 at (  16,   8,   7)
       Min divergence: -0.16E+01 at (  15,   8,  15)
       Max VN number:   0.56E+00 at (  14,   8,  24)
       No. of Lagrangian Particles:             3
       Total Heat Release Rate:             35.151 kW
       Radiation Loss to Boundaries:        -9.249 kW
 
       Time Step    2900   March  7, 2021  22:31:23
       Step Size:    0.209E-01 s, Total Time:      89.05 s
       Pressure Iterations:      1
       Maximum Velocity Error:  0.14E-01 on Mesh   1 at (  14   9  12)
       Maximum Pressure Error:  0.19E+02 on Mesh   1 at (  16   8  18)
       ---------------------------------------------------------------
       Max CFL number:  0.94E+00 at (  15,   8,  14)
       Max divergence:  0.74E+01 at (  16,   8,   7)
       Min divergence: -0.22E+01 at (  15,   8,  14)
       Max VN number:   0.47E+00 at (  16,   8,  24)
       No. of Lagrangian Particles:             3
       Total Heat Release Rate:             32.111 kW
       Radiation Loss to Boundaries:        -8.614 kW
 
       Time Step    3000   March  7, 2021  22:31:27
       Step Size:    0.149E-01 s, Total Time:      90.80 s
       Pressure Iterations:      1
       Maximum Velocity Error:  0.13E-01 on Mesh   1 at (  16   9  12)
       Maximum Pressure Error:  0.92E+02 on Mesh   1 at (  17   9  24)
       ---------------------------------------------------------------
       Max CFL number:  0.85E+00 at (  16,   8,  16)
       Max divergence:  0.77E+01 at (  15,   8,   7)
       Min divergence: -0.32E+01 at (  16,   8,  15)
       Max VN number:   0.43E+00 at (  17,   9,  24)
       No. of Lagrangian Particles:             3
       Total Heat Release Rate:             43.768 kW
       Radiation Loss to Boundaries:       -10.015 kW
 
       Time Step    3100   March  7, 2021  22:31:30
       Step Size:    0.194E-01 s, Total Time:      92.28 s
       Pressure Iterations:      1
       Maximum Velocity Error:  0.15E-01 on Mesh   1 at (  15   9  12)
       Maximum Pressure Error:  0.38E+02 on Mesh   1 at (  16   7  24)
       ---------------------------------------------------------------
       Max CFL number:  0.85E+00 at (  16,   8,  20)
       Max divergence:  0.83E+01 at (  15,   8,   7)
       Min divergence: -0.12E+01 at (  14,   8,  15)
       Max VN number:   0.49E+00 at (  17,   8,  24)
       No. of Lagrangian Particles:             3
       Total Heat Release Rate:             31.058 kW
       Radiation Loss to Boundaries:        -8.252 kW
 
       Time Step    3200   March  7, 2021  22:31:34
       Step Size:    0.185E-01 s, Total Time:      94.42 s
       Pressure Iterations:      1
       Maximum Velocity Error:  0.95E-02 on Mesh   1 at (  14   9  12)
       Maximum Pressure Error:  0.12E+03 on Mesh   1 at (  16   8  19)
       ---------------------------------------------------------------
       Max CFL number:  0.87E+00 at (  15,   8,  15)
       Max divergence:  0.62E+01 at (  15,   8,   7)
       Min divergence: -0.31E+01 at (  15,   8,  15)
       Max VN number:   0.38E+00 at (  15,   7,  24)
       No. of Lagrangian Particles:             3
       Total Heat Release Rate:             33.904 kW
       Radiation Loss to Boundaries:        -8.314 kW
 
       Time Step    3300   March  7, 2021  22:31:38
       Step Size:    0.140E-01 s, Total Time:      96.20 s
       Pressure Iterations:      1
       Maximum Velocity Error:  0.20E-01 on Mesh   1 at (  14   9  12)
       Maximum Pressure Error:  0.40E+03 on Mesh   1 at (  14   7  17)
       ---------------------------------------------------------------
       Max CFL number:  0.10E+01 at (  14,   7,  17)
       Max divergence:  0.11E+02 at (  14,   8,   8)
       Min divergence: -0.51E+01 at (  14,   8,  19)
       Max VN number:   0.50E+00 at (  14,   8,  24)
       No. of Lagrangian Particles:             3
       Total Heat Release Rate:            126.893 kW
       Radiation Loss to Boundaries:       -36.302 kW
 
       Time Step    3400   March  7, 2021  22:31:42
       Step Size:    0.177E-01 s, Total Time:      97.90 s
       Pressure Iterations:      1
       Maximum Velocity Error:  0.44E-01 on Mesh   1 at (  14   8   6)
       Maximum Pressure Error:  0.25E+03 on Mesh   1 at (  14   8   7)
       ---------------------------------------------------------------
       Max CFL number:  0.90E+00 at (  13,   8,  14)
       Max divergence:  0.91E+01 at (  16,   8,   7)
       Min divergence: -0.34E+01 at (  13,   8,  14)
       Max VN number:   0.48E+00 at (  14,   8,  24)
       No. of Lagrangian Particles:             3
       Total Heat Release Rate:             63.825 kW
       Radiation Loss to Boundaries:       -17.548 kW
 
       Time Step    3500   March  7, 2021  22:31:45
       Step Size:    0.203E-01 s, Total Time:      99.71 s
       Pressure Iterations:      1
       Maximum Velocity Error:  0.14E-01 on Mesh   1 at (  16   9  12)
       Maximum Pressure Error:  0.29E+02 on Mesh   1 at (  15   8  14)
       ---------------------------------------------------------------
       Max CFL number:  0.92E+00 at (  15,   8,  14)
       Max divergence:  0.63E+01 at (  16,   8,   7)
       Min divergence: -0.26E+01 at (  15,   8,  16)
       Max VN number:   0.51E+00 at (  13,   8,  24)
       No. of Lagrangian Particles:             3
       Total Heat Release Rate:             34.238 kW
       Radiation Loss to Boundaries:        -9.095 kW
 
       Time Step    3600   March  7, 2021  22:31:49
       Step Size:    0.203E-01 s, Total Time:     101.73 s
       Pressure Iterations:      1
       Maximum Velocity Error:  0.14E-01 on Mesh   1 at (  14   9  12)
       Maximum Pressure Error:  0.26E+02 on Mesh   1 at (  14   7  24)
       ---------------------------------------------------------------
       Max CFL number:  0.91E+00 at (  15,   8,  15)
       Max divergence:  0.62E+01 at (  14,   8,   7)
       Min divergence: -0.23E+01 at (  15,   8,  16)
       Max VN number:   0.46E+00 at (  16,   8,  24)
       No. of Lagrangian Particles:             3
       Total Heat Release Rate:             38.426 kW
       Radiation Loss to Boundaries:       -10.577 kW
 
       Time Step    3700   March  7, 2021  22:31:53
       Step Size:    0.177E-01 s, Total Time:     103.60 s
       Pressure Iterations:      1
       Maximum Velocity Error:  0.35E-01 on Mesh   1 at (  14   9  12)
       Maximum Pressure Error:  0.52E+02 on Mesh   1 at (  15   8  11)
       ---------------------------------------------------------------
       Max CFL number:  0.91E+00 at (  15,   8,  20)
       Max divergence:  0.77E+01 at (  15,   8,   7)
       Min divergence: -0.21E+01 at (  15,   8,  16)
       Max VN number:   0.44E+00 at (  14,   8,  24)
       No. of Lagrangian Particles:             3
       Total Heat Release Rate:             32.552 kW
       Radiation Loss to Boundaries:        -7.423 kW
 
       Time Step    3800   March  7, 2021  22:31:57
       Step Size:    0.210E-01 s, Total Time:     105.74 s
       Pressure Iterations:      1
       Maximum Velocity Error:  0.74E-02 on Mesh   1 at (  14   9  10)
       Maximum Pressure Error:  0.31E+02 on Mesh   1 at (  16   7  24)
       ---------------------------------------------------------------
       Max CFL number:  0.95E+00 at (  15,   8,  17)
       Max divergence:  0.75E+01 at (  16,   8,   7)
       Min divergence: -0.28E+01 at (  15,   8,  16)
       Max VN number:   0.47E+00 at (  17,   8,  24)
       No. of Lagrangian Particles:             3
       Total Heat Release Rate:             32.166 kW
       Radiation Loss to Boundaries:        -8.472 kW
 
       Time Step    3900   March  7, 2021  22:32:01
       Step Size:    0.197E-01 s, Total Time:     107.73 s
       Pressure Iterations:      1
       Maximum Velocity Error:  0.20E-01 on Mesh   1 at (  15   9  10)
       Maximum Pressure Error:  0.58E+02 on Mesh   1 at (  15   8   9)
       ---------------------------------------------------------------
       Max CFL number:  0.88E+00 at (  15,   8,  18)
       Max divergence:  0.64E+01 at (  15,   8,   7)
       Min divergence: -0.22E+01 at (  15,   8,  15)
       Max VN number:   0.47E+00 at (  17,   8,  24)
       No. of Lagrangian Particles:             3
       Total Heat Release Rate:             36.015 kW
       Radiation Loss to Boundaries:        -9.504 kW
 
       Time Step    4000   March  7, 2021  22:32:04
       Step Size:    0.168E-01 s, Total Time:     109.67 s
       Pressure Iterations:      1
       Maximum Velocity Error:  0.78E-02 on Mesh   1 at (  16   9  11)
       Maximum Pressure Error:  0.10E+03 on Mesh   1 at (  14   8  18)
       ---------------------------------------------------------------
       Max CFL number:  0.97E+00 at (  14,   8,  17)
       Max divergence:  0.76E+01 at (  14,   8,   7)
       Min divergence: -0.32E+01 at (  14,   8,  18)
       Max VN number:   0.40E+00 at (  17,   8,  24)
       No. of Lagrangian Particles:             3
       Total Heat Release Rate:             52.244 kW
       Radiation Loss to Boundaries:       -14.112 kW
 
       Time Step    4100   March  7, 2021  22:32:08
       Step Size:    0.204E-01 s, Total Time:     111.57 s
       Pressure Iterations:      1
       Maximum Velocity Error:  0.18E-02 on Mesh   1 at (  16   9  12)
       Maximum Pressure Error:  0.15E+02 on Mesh   1 at (  15   9  24)
       ---------------------------------------------------------------
       Max CFL number:  0.83E+00 at (  15,   8,  18)
       Max divergence:  0.69E+01 at (  16,   8,   7)
       Min divergence: -0.15E+01 at (  15,   8,  16)
       Max VN number:   0.47E+00 at (  17,   8,  24)
       No. of Lagrangian Particles:             3
       Total Heat Release Rate:             31.478 kW
       Radiation Loss to Boundaries:        -8.279 kW
 
       Time Step    4200   March  7, 2021  22:32:12
       Step Size:    0.195E-01 s, Total Time:     113.64 s
       Pressure Iterations:      1
       Maximum Velocity Error:  0.44E-01 on Mesh   1 at (  14   9  12)
       Maximum Pressure Error:  0.14E+03 on Mesh   1 at (  14   8  15)
       ---------------------------------------------------------------
       Max CFL number:  0.98E+00 at (  15,   8,  18)
       Max divergence:  0.74E+01 at (  14,   8,   7)
       Min divergence: -0.31E+01 at (  15,   8,  17)
       Max VN number:   0.42E+00 at (  16,   8,  24)
       No. of Lagrangian Particles:             3
       Total Heat Release Rate:             39.087 kW
       Radiation Loss to Boundaries:        -9.566 kW
 
       Time Step    4300   March  7, 2021  22:32:16
       Step Size:    0.197E-01 s, Total Time:     115.48 s
       Pressure Iterations:      1
       Maximum Velocity Error:  0.88E-02 on Mesh   1 at (  15   9  12)
       Maximum Pressure Error:  0.27E+02 on Mesh   1 at (  15   7  21)
       ---------------------------------------------------------------
       Max CFL number:  0.86E+00 at (  15,   8,  19)
       Max divergence:  0.58E+01 at (  14,   8,   7)
       Min divergence: -0.15E+01 at (  15,   8,  17)
       Max VN number:   0.44E+00 at (  16,   9,  24)
       No. of Lagrangian Particles:             3
       Total Heat Release Rate:             24.417 kW
       Radiation Loss to Boundaries:        -5.930 kW
 
       Time Step    4400   March  7, 2021  22:32:20
       Step Size:    0.152E-01 s, Total Time:     117.71 s
       Pressure Iterations:      3
       Maximum Velocity Error:  0.27E-01 on Mesh   1 at (  16   8   6)
       Maximum Pressure Error:  0.60E+03 on Mesh   1 at (  16   8   7)
       ---------------------------------------------------------------
       Max CFL number:  0.89E+00 at (  16,   8,  15)
       Max divergence:  0.61E+01 at (  15,   8,  13)
       Min divergence: -0.49E+01 at (  15,   8,  16)
       Max VN number:   0.39E+00 at (  16,   8,  15)
       No. of Lagrangian Particles:             3
       Total Heat Release Rate:             86.547 kW
       Radiation Loss to Boundaries:       -25.060 kW
 
       Time Step    4500   March  7, 2021  22:32:24
       Step Size:    0.246E-01 s, Total Time:     119.33 s
       Pressure Iterations:      1
       Maximum Velocity Error:  0.16E-01 on Mesh   1 at (  17   9  11)
       Maximum Pressure Error:  0.18E+02 on Mesh   1 at (  17   8  10)
       ---------------------------------------------------------------
       Max CFL number:  0.87E+00 at (  16,   8,  13)
       Max divergence:  0.67E+01 at (  16,   8,   7)
       Min divergence: -0.15E+01 at (  16,   8,  14)
       Max VN number:   0.46E+00 at (  16,   8,  24)
       No. of Lagrangian Particles:             3
       Total Heat Release Rate:             24.108 kW
       Radiation Loss to Boundaries:        -6.285 kW
 
       Time Step    4600   March  7, 2021  22:32:27
       Step Size:    0.221E-01 s, Total Time:     121.59 s
       Pressure Iterations:      1
       Maximum Velocity Error:  0.55E-02 on Mesh   1 at (  16   9  12)
       Maximum Pressure Error:  0.46E+02 on Mesh   1 at (  14   8  18)
       ---------------------------------------------------------------
       Max CFL number:  0.85E+00 at (  15,   8,  19)
       Max divergence:  0.62E+01 at (  15,   8,   7)
       Min divergence: -0.14E+01 at (  15,   8,  16)
       Max VN number:   0.48E+00 at (  15,   8,  24)
       No. of Lagrangian Particles:             3
       Total Heat Release Rate:             28.622 kW
       Radiation Loss to Boundaries:        -7.364 kW
 
       Time Step    4700   March  7, 2021  22:32:31
       Step Size:    0.198E-01 s, Total Time:     123.71 s
       Pressure Iterations:      1
       Maximum Velocity Error:  0.60E-02 on Mesh   1 at (  16   9  12)
       Maximum Pressure Error:  0.18E+02 on Mesh   1 at (  15   8   7)
       ---------------------------------------------------------------
       Max CFL number:  0.93E+00 at (  15,   8,  17)
       Max divergence:  0.62E+01 at (  14,   8,   7)
       Min divergence: -0.25E+01 at (  15,   8,  16)
       Max VN number:   0.44E+00 at (  16,   8,  24)
       No. of Lagrangian Particles:             3
       Total Heat Release Rate:             37.038 kW
       Radiation Loss to Boundaries:        -9.860 kW
 
       Time Step    4800   March  7, 2021  22:32:35
       Step Size:    0.993E-02 s, Total Time:     125.38 s
       Pressure Iterations:      1
       Maximum Velocity Error:  0.25E-01 on Mesh   1 at (  14   9  12)
       Maximum Pressure Error:  0.33E+03 on Mesh   1 at (  14   7  22)
       ---------------------------------------------------------------
       Max CFL number:  0.89E+00 at (  14,   7,  21)
       Max divergence:  0.94E+01 at (  14,   8,   7)
       Min divergence: -0.38E+01 at (  14,   8,  17)
       Max VN number:   0.39E+00 at (  13,   8,  24)
       No. of Lagrangian Particles:             3
       Total Heat Release Rate:             62.948 kW
       Radiation Loss to Boundaries:       -13.392 kW
 
       Time Step    4900   March  7, 2021  22:32:39
       Step Size:    0.207E-01 s, Total Time:     127.22 s
       Pressure Iterations:      1
       Maximum Velocity Error:  0.26E-01 on Mesh   1 at (  15   9  10)
       Maximum Pressure Error:  0.10E+03 on Mesh   1 at (  16   8   9)
       ---------------------------------------------------------------
       Max CFL number:  0.95E+00 at (  17,   8,  20)
       Max divergence:  0.57E+01 at (  16,   8,   7)
       Min divergence: -0.18E+01 at (  15,   8,  16)
       Max VN number:   0.49E+00 at (  16,   8,  24)
       No. of Lagrangian Particles:             3
       Total Heat Release Rate:             58.679 kW
       Radiation Loss to Boundaries:       -15.133 kW
 
       Time Step    5000   March  7, 2021  22:32:43
       Step Size:    0.218E-01 s, Total Time:     129.20 s
       Pressure Iterations:      1
       Maximum Velocity Error:  0.71E-02 on Mesh   1 at (  15   9  12)
       Maximum Pressure Error:  0.45E+02 on Mesh   1 at (  14   8  21)
       ---------------------------------------------------------------
       Max CFL number:  0.95E+00 at (  15,   8,  19)
       Max divergence:  0.74E+01 at (  15,   8,   7)
       Min divergence: -0.20E+01 at (  15,   8,  16)
       Max VN number:   0.49E+00 at (  15,   7,  24)
       No. of Lagrangian Particles:             3
       Total Heat Release Rate:             32.702 kW
       Radiation Loss to Boundaries:        -8.340 kW
 
       Time Step    5100   March  7, 2021  22:32:46
       Step Size:    0.140E-01 s, Total Time:     131.28 s
       Pressure Iterations:      1
       Maximum Velocity Error:  0.47E-01 on Mesh   1 at (  16   9   8)
       Maximum Pressure Error:  0.30E+03 on Mesh   1 at (  15   8   8)
       ---------------------------------------------------------------
       Max CFL number:  0.93E+00 at (  15,   8,  13)
       Max divergence:  0.94E+01 at (  15,   8,  13)
       Min divergence: -0.59E+01 at (  15,   8,  17)
       Max VN number:   0.41E+00 at (  16,   8,  24)
       No. of Lagrangian Particles:             3
       Total Heat Release Rate:             99.982 kW
       Radiation Loss to Boundaries:       -25.424 kW
 
       Time Step    5200   March  7, 2021  22:32:50
       Step Size:    0.118E-01 s, Total Time:     132.61 s
       Pressure Iterations:      1
       Maximum Velocity Error:  0.17E-01 on Mesh   1 at (  14   9  12)
       Maximum Pressure Error:  0.14E+03 on Mesh   1 at (  13   8  24)
       ---------------------------------------------------------------
       Max CFL number:  0.84E+00 at (  15,   8,  17)
       Max divergence:  0.89E+01 at (  15,   8,   7)
       Min divergence: -0.44E+01 at (  15,   8,  18)
       Max VN number:   0.49E+00 at (  13,   8,  24)
       No. of Lagrangian Particles:             3
       Total Heat Release Rate:             75.070 kW
       Radiation Loss to Boundaries:       -19.194 kW
 
       Time Step    5300   March  7, 2021  22:32:54
       Step Size:    0.216E-01 s, Total Time:     134.84 s
       Pressure Iterations:      1
       Maximum Velocity Error:  0.88E-02 on Mesh   1 at (  15   9   7)
       Maximum Pressure Error:  0.28E+02 on Mesh   1 at (  14   8  17)
       ---------------------------------------------------------------
       Max CFL number:  0.90E+00 at (  14,   8,  21)
       Max divergence:  0.76E+01 at (  15,   8,   7)
       Min divergence: -0.10E+01 at (  15,   8,  15)
       Max VN number:   0.37E+00 at (  15,   8,  24)
       No. of Lagrangian Particles:             3
       Total Heat Release Rate:             26.909 kW
       Radiation Loss to Boundaries:        -7.106 kW
 
       Time Step    5400   March  7, 2021  22:32:58
       Step Size:    0.191E-01 s, Total Time:     137.09 s
       Pressure Iterations:      2
       Maximum Velocity Error:  0.10E-01 on Mesh   1 at (  15   9   8)
       Maximum Pressure Error:  0.19E+03 on Mesh   1 at (  15   8   8)
       ---------------------------------------------------------------
       Max CFL number:  0.98E+00 at (  15,   8,  14)
       Max divergence:  0.82E+01 at (  16,   8,   7)
       Min divergence: -0.33E+01 at (  15,   8,  15)
       Max VN number:   0.47E+00 at (  16,   8,  24)
       No. of Lagrangian Particles:             3
       Total Heat Release Rate:             45.091 kW
       Radiation Loss to Boundaries:       -12.503 kW
 
       Time Step    5500   March  7, 2021  22:33:02
       Step Size:    0.116E-01 s, Total Time:     138.89 s
       Pressure Iterations:      1
       Maximum Velocity Error:  0.18E-01 on Mesh   1 at (  17   9  12)
       Maximum Pressure Error:  0.53E+03 on Mesh   1 at (  17   8  24)
       ---------------------------------------------------------------
       Max CFL number:  0.90E+00 at (  16,   8,  17)
       Max divergence:  0.75E+01 at (  16,   8,  13)
       Min divergence: -0.46E+01 at (  16,   8,  17)
       Max VN number:   0.47E+00 at (  17,   8,  24)
       No. of Lagrangian Particles:             3
       Total Heat Release Rate:            119.233 kW
       Radiation Loss to Boundaries:       -32.519 kW
 
       Time Step    5600   March  7, 2021  22:33:06
       Step Size:    0.218E-01 s, Total Time:     140.75 s
       Pressure Iterations:      1
       Maximum Velocity Error:  0.21E-01 on Mesh   1 at (  14   9  12)
       Maximum Pressure Error:  0.44E+02 on Mesh   1 at (  14   8  15)
       ---------------------------------------------------------------
       Max CFL number:  0.89E+00 at (  15,   8,  16)
       Max divergence:  0.74E+01 at (  15,   8,   7)
       Min divergence: -0.18E+01 at (  15,   8,  16)
       Max VN number:   0.41E+00 at (  15,   8,  24)
       No. of Lagrangian Particles:             3
       Total Heat Release Rate:             31.103 kW
       Radiation Loss to Boundaries:        -8.665 kW
 
       Time Step    5700   March  7, 2021  22:33:09
       Step Size:    0.175E-01 s, Total Time:     142.91 s
       Pressure Iterations:      1
       Maximum Velocity Error:  0.11E-01 on Mesh   1 at (  15   9   9)
       Maximum Pressure Error:  0.52E+02 on Mesh   1 at (  15   8   7)
       ---------------------------------------------------------------
       Max CFL number:  0.90E+00 at (  15,   8,  15)
       Max divergence:  0.53E+01 at (  14,   8,   7)
       Min divergence: -0.33E+01 at (  15,   8,  16)
       Max VN number:   0.39E+00 at (  16,   8,  24)
       No. of Lagrangian Particles:             3
       Total Heat Release Rate:             45.880 kW
       Radiation Loss to Boundaries:       -12.713 kW
 
       Time Step    5800   March  7, 2021  22:33:13
       Step Size:    0.190E-01 s, Total Time:     144.85 s
       Pressure Iterations:      1
       Maximum Velocity Error:  0.26E-01 on Mesh   1 at (  16   9   7)
       Maximum Pressure Error:  0.60E+02 on Mesh   1 at (  16   8   9)
       ---------------------------------------------------------------
       Max CFL number:  0.90E+00 at (  15,   8,  16)
       Max divergence:  0.60E+01 at (  14,   8,   7)
       Min divergence: -0.20E+01 at (  16,   8,  16)
       Max VN number:   0.46E+00 at (  17,   8,  24)
       No. of Lagrangian Particles:             3
       Total Heat Release Rate:             35.855 kW
       Radiation Loss to Boundaries:        -8.548 kW
 
       Time Step    5900   March  7, 2021  22:33:17
       Step Size:    0.184E-01 s, Total Time:     146.93 s
       Pressure Iterations:      1
       Maximum Velocity Error:  0.11E-01 on Mesh   1 at (  14   9  12)
       Maximum Pressure Error:  0.23E+02 on Mesh   1 at (  15   8  16)
       ---------------------------------------------------------------
       Max CFL number:  0.93E+00 at (  15,   8,  18)
       Max divergence:  0.74E+01 at (  15,   8,   7)
       Min divergence: -0.29E+01 at (  15,   8,  16)
       Max VN number:   0.46E+00 at (  16,   8,  24)
       No. of Lagrangian Particles:             3
       Total Heat Release Rate:             38.298 kW
       Radiation Loss to Boundaries:        -9.478 kW
 
       Time Step    6000   March  7, 2021  22:33:21
       Step Size:    0.222E-01 s, Total Time:     148.91 s
       Pressure Iterations:      1
       Maximum Velocity Error:  0.87E-02 on Mesh   1 at (  15   8   6)
       Maximum Pressure Error:  0.25E+02 on Mesh   1 at (  17   8  24)
       ---------------------------------------------------------------
       Max CFL number:  0.90E+00 at (  16,   8,  21)
       Max divergence:  0.64E+01 at (  16,   8,   7)
       Min divergence: -0.16E+01 at (  15,   8,  15)
       Max VN number:   0.47E+00 at (  16,   8,  24)
       No. of Lagrangian Particles:             3
       Total Heat Release Rate:             25.874 kW
       Radiation Loss to Boundaries:        -6.349 kW
 
       Time Step    6100   March  7, 2021  22:33:25
       Step Size:    0.222E-01 s, Total Time:     151.13 s
       Pressure Iterations:      1
       Maximum Velocity Error:  0.12E-01 on Mesh   1 at (  16   9  12)
       Maximum Pressure Error:  0.14E+02 on Mesh   1 at (  16   8  12)
       ---------------------------------------------------------------
       Max CFL number:  0.90E+00 at (  15,   8,  16)
       Max divergence:  0.70E+01 at (  15,   8,   7)
       Min divergence: -0.20E+01 at (  15,   8,  16)
       Max VN number:   0.47E+00 at (  15,   8,  24)
       No. of Lagrangian Particles:             3
       Total Heat Release Rate:             30.301 kW
       Radiation Loss to Boundaries:        -8.085 kW
 
       Time Step    6200   March  7, 2021  22:33:29
       Step Size:    0.196E-01 s, Total Time:     153.33 s
       Pressure Iterations:      1
       Maximum Velocity Error:  0.72E-02 on Mesh   1 at (  16   9  11)
       Maximum Pressure Error:  0.55E+02 on Mesh   1 at (  15   7  24)
       ---------------------------------------------------------------
       Max CFL number:  0.90E+00 at (  15,   8,  16)
       Max divergence:  0.59E+01 at (  16,   8,   7)
       Min divergence: -0.24E+01 at (  15,   8,  16)
       Max VN number:   0.44E+00 at (  17,   8,  24)
       No. of Lagrangian Particles:             3
       Total Heat Release Rate:             38.603 kW
       Radiation Loss to Boundaries:        -9.962 kW
 
       Time Step    6300   March  7, 2021  22:33:33
       Step Size:    0.169E-01 s, Total Time:     154.80 s
       Pressure Iterations:      1
       Maximum Velocity Error:  0.13E-01 on Mesh   1 at (  14   9  12)
       Maximum Pressure Error:  0.57E+02 on Mesh   1 at (  16   8  24)
       ---------------------------------------------------------------
       Max CFL number:  0.86E+00 at (  17,   8,  20)
       Max divergence:  0.62E+01 at (  15,   8,   7)
       Min divergence: -0.19E+01 at (  16,   8,  19)
       Max VN number:   0.44E+00 at (  17,   8,  24)
       No. of Lagrangian Particles:             3
       Total Heat Release Rate:             32.689 kW
       Radiation Loss to Boundaries:        -8.258 kW
 
       Time Step    6400   March  7, 2021  22:33:36
       Step Size:    0.147E-01 s, Total Time:     156.47 s
       Pressure Iterations:      1
       Maximum Velocity Error:  0.12E-01 on Mesh   1 at (  16   8   6)
       Maximum Pressure Error:  0.76E+02 on Mesh   1 at (  14   7  24)
       ---------------------------------------------------------------
       Max CFL number:  0.87E+00 at (  16,   8,  16)
       Max divergence:  0.73E+01 at (  15,   8,   7)
       Min divergence: -0.27E+01 at (  15,   8,  19)
       Max VN number:   0.40E+00 at (  15,   8,  24)
       No. of Lagrangian Particles:             3
       Total Heat Release Rate:             72.814 kW
       Radiation Loss to Boundaries:       -19.015 kW
 
       Time Step    6500   March  7, 2021  22:33:40
       Step Size:    0.172E-01 s, Total Time:     158.27 s
       Pressure Iterations:      1
       Maximum Velocity Error:  0.18E-01 on Mesh   1 at (  15   9  12)
       Maximum Pressure Error:  0.37E+02 on Mesh   1 at (  14   8  18)
       ---------------------------------------------------------------
       Max CFL number:  0.79E+00 at (  15,   8,  16)
       Max divergence:  0.80E+01 at (  14,   8,   7)
       Min divergence: -0.22E+01 at (  15,   8,  15)
       Max VN number:   0.42E+00 at (  14,   8,  24)
       No. of Lagrangian Particles:             3
       Total Heat Release Rate:             32.148 kW
       Radiation Loss to Boundaries:        -7.656 kW
 
       Time Step    6600   March  7, 2021  22:33:44
       Step Size:    0.189E-01 s, Total Time:     160.41 s
       Pressure Iterations:      1
       Maximum Velocity Error:  0.89E-02 on Mesh   1 at (  14   9  12)
       Maximum Pressure Error:  0.46E+02 on Mesh   1 at (  16   7  22)
       ---------------------------------------------------------------
       Max CFL number:  0.87E+00 at (  15,   8,  15)
       Max divergence:  0.68E+01 at (  16,   8,   7)
       Min divergence: -0.27E+01 at (  15,   8,  15)
       Max VN number:   0.53E+00 at (  15,   7,  24)
       No. of Lagrangian Particles:             3
       Total Heat Release Rate:             33.447 kW
       Radiation Loss to Boundaries:        -8.405 kW
 
       Time Step    6700   March  7, 2021  22:33:48
       Step Size:    0.225E-01 s, Total Time:     162.28 s
       Pressure Iterations:      1
       Maximum Velocity Error:  0.13E-01 on Mesh   1 at (  15   9  12)
       Maximum Pressure Error:  0.25E+02 on Mesh   1 at (  15   8  13)
       ---------------------------------------------------------------
       Max CFL number:  0.87E+00 at (  15,   8,  14)
       Max divergence:  0.66E+01 at (  14,   8,   7)
       Min divergence: -0.16E+01 at (  15,   8,  14)
       Max VN number:   0.47E+00 at (  17,   8,  24)
       No. of Lagrangian Particles:             3
       Total Heat Release Rate:             29.196 kW
       Radiation Loss to Boundaries:        -7.612 kW
 
       Time Step    6800   March  7, 2021  22:33:52
       Step Size:    0.201E-01 s, Total Time:     164.32 s
       Pressure Iterations:      1
       Maximum Velocity Error:  0.13E-01 on Mesh   1 at (  16   8   6)
       Maximum Pressure Error:  0.12E+03 on Mesh   1 at (  16   8   7)
       ---------------------------------------------------------------
       Max CFL number:  0.85E+00 at (  16,   8,  16)
       Max divergence:  0.70E+01 at (  15,   8,   7)
       Min divergence: -0.15E+01 at (  16,   8,  16)
       Max VN number:   0.50E+00 at (  14,   8,  24)
       No. of Lagrangian Particles:             3
       Total Heat Release Rate:             43.157 kW
       Radiation Loss to Boundaries:       -11.657 kW
 
       Time Step    6900   March  7, 2021  22:33:56
       Step Size:    0.201E-01 s, Total Time:     166.33 s
       Pressure Iterations:      1
       Maximum Velocity Error:  0.12E-01 on Mesh   1 at (  15   9   8)
       Maximum Pressure Error:  0.27E+02 on Mesh   1 at (  15   8   9)
       ---------------------------------------------------------------
       Max CFL number:  0.85E+00 at (  15,   8,  16)
       Max divergence:  0.68E+01 at (  14,   8,   7)
       Min divergence: -0.22E+01 at (  15,   8,  16)
       Max VN number:   0.46E+00 at (  17,   8,  24)
       No. of Lagrangian Particles:             3
       Total Heat Release Rate:             35.998 kW
       Radiation Loss to Boundaries:        -9.630 kW
 
       Time Step    7000   March  7, 2021  22:33:59
       Step Size:    0.151E-01 s, Total Time:     168.00 s
       Pressure Iterations:      1
       Maximum Velocity Error:  0.11E-01 on Mesh   1 at (  15   9  12)
       Maximum Pressure Error:  0.74E+02 on Mesh   1 at (  16   8   7)
       ---------------------------------------------------------------
       Max CFL number:  0.80E+00 at (  15,   8,  19)
       Max divergence:  0.68E+01 at (  15,   8,   7)
       Min divergence: -0.26E+01 at (  15,   8,  15)
       Max VN number:   0.42E+00 at (  15,   8,  24)
       No. of Lagrangian Particles:             3
       Total Heat Release Rate:             40.486 kW
       Radiation Loss to Boundaries:        -9.837 kW
 
       Time Step    7100   March  7, 2021  22:34:03
       Step Size:    0.194E-01 s, Total Time:     170.18 s
       Pressure Iterations:      1
       Maximum Velocity Error:  0.11E-01 on Mesh   1 at (  14   9   8)
       Maximum Pressure Error:  0.93E+02 on Mesh   1 at (  15   8  14)
       ---------------------------------------------------------------
       Max CFL number:  0.92E+00 at (  15,   8,  16)
       Max divergence:  0.75E+01 at (  14,   8,   7)
       Min divergence: -0.45E+01 at (  15,   8,  15)
       Max VN number:   0.49E+00 at (  14,   8,  24)
       No. of Lagrangian Particles:             3
       Total Heat Release Rate:             40.141 kW
[...]
       Total Heat Release Rate:            642.951 kW
       Radiation Loss to Boundaries:      -207.472 kW
 
       Time Step   37600   March  7, 2021  22:53:27
       Step Size:    0.863E-02 s, Total Time:     575.55 s
       Pressure Iterations:      4
       Maximum Velocity Error:  0.30E-01 on Mesh   1 at (  18   9   9)
       Maximum Pressure Error:  0.11E+04 on Mesh   1 at (  20   7  12)
       ---------------------------------------------------------------
       Max CFL number:  0.84E+00 at (  24,  10,  24)
       Max divergence:  0.20E+02 at (  14,   7,   6)
       Min divergence: -0.54E+01 at (  20,   8,  15)
       Max VN number:   0.32E+00 at (  18,   6,  24)
       No. of Lagrangian Particles:             3
       Total Heat Release Rate:            514.964 kW
       Radiation Loss to Boundaries:      -146.865 kW
 
       Time Step   37700   March  7, 2021  22:53:31
       Step Size:    0.109E-01 s, Total Time:     576.53 s
       Pressure Iterations:      3
       Maximum Velocity Error:  0.37E-01 on Mesh   1 at (  21   8   7)
       Maximum Pressure Error:  0.87E+03 on Mesh   1 at (   8  10  24)
       ---------------------------------------------------------------
       Max CFL number:  0.93E+00 at (  13,  10,  24)
       Max divergence:  0.13E+02 at (  14,   9,  10)
       Min divergence: -0.58E+01 at (  17,   9,   6)
       Max VN number:   0.45E+00 at (  19,   8,  24)
       No. of Lagrangian Particles:             3
       Total Heat Release Rate:            457.236 kW
       Radiation Loss to Boundaries:      -142.231 kW
 
       Time Step   37800   March  7, 2021  22:53:35
       Step Size:    0.101E-01 s, Total Time:     577.59 s
       Pressure Iterations:      3
       Maximum Velocity Error:  0.41E-01 on Mesh   1 at (  13   8   5)
       Maximum Pressure Error:  0.64E+03 on Mesh   1 at (   7  10  24)
       ---------------------------------------------------------------
       Max CFL number:  0.87E+00 at (  11,  10,  24)
       Max divergence:  0.18E+02 at (  19,   8,  12)
       Min divergence: -0.40E+01 at (  19,   8,  17)
       Max VN number:   0.36E+00 at (  14,   9,  24)
       No. of Lagrangian Particles:             3
       Total Heat Release Rate:            423.095 kW
       Radiation Loss to Boundaries:      -116.452 kW
 
       Time Step   37900   March  7, 2021  22:53:39
       Step Size:    0.105E-01 s, Total Time:     578.52 s
       Pressure Iterations:      3
       Maximum Velocity Error:  0.29E-01 on Mesh   1 at (  18   9   8)
       Maximum Pressure Error:  0.14E+04 on Mesh   1 at (  20  10  24)
       ---------------------------------------------------------------
       Max CFL number:  0.95E+00 at (  16,   8,  14)
       Max divergence:  0.11E+02 at (  17,   8,   8)
       Min divergence: -0.44E+01 at (  17,   7,   6)
       Max VN number:   0.40E+00 at (  17,   7,  24)
       No. of Lagrangian Particles:             3
       Total Heat Release Rate:            457.715 kW
       Radiation Loss to Boundaries:      -131.555 kW
 
       Time Step   38000   March  7, 2021  22:53:43
       Step Size:    0.102E-01 s, Total Time:     579.53 s
       Pressure Iterations:      2
       Maximum Velocity Error:  0.49E-01 on Mesh   1 at (  18   9  12)
       Maximum Pressure Error:  0.73E+03 on Mesh   1 at (  16   6   7)
       ---------------------------------------------------------------
       Max CFL number:  0.89E+00 at (  11,  10,  24)
       Max divergence:  0.25E+02 at (  16,   6,   7)
       Min divergence: -0.46E+01 at (  15,  10,   7)
       Max VN number:   0.38E+00 at (  20,   6,  24)
       No. of Lagrangian Particles:             3
       Total Heat Release Rate:            596.062 kW
       Radiation Loss to Boundaries:      -180.325 kW
 
       Time Step   38100   March  7, 2021  22:53:47
       Step Size:    0.101E-01 s, Total Time:     580.48 s
       Pressure Iterations:      2
       Maximum Velocity Error:  0.33E-01 on Mesh   1 at (  21   8   8)
       Maximum Pressure Error:  0.11E+04 on Mesh   1 at (  21   8  19)
       ---------------------------------------------------------------
       Max CFL number:  0.90E+00 at (  21,   8,  19)
       Max divergence:  0.17E+02 at (  17,   8,   9)
       Min divergence: -0.40E+01 at (  22,   9,  23)
       Max VN number:   0.40E+00 at (  16,   9,  24)
       No. of Lagrangian Particles:             3
       Total Heat Release Rate:            586.688 kW
       Radiation Loss to Boundaries:      -171.091 kW
 
       Time Step   38200   March  7, 2021  22:53:51
       Step Size:    0.859E-02 s, Total Time:     581.41 s
       Pressure Iterations:      2
       Maximum Velocity Error:  0.47E-01 on Mesh   1 at (  15  10   8)
       Maximum Pressure Error:  0.10E+04 on Mesh   1 at (  24   7  23)
       ---------------------------------------------------------------
       Max CFL number:  0.90E+00 at (  18,   2,  24)
       Max divergence:  0.16E+02 at (  17,   8,  10)
       Min divergence: -0.41E+01 at (  20,   8,  17)
       Max VN number:   0.38E+00 at (  17,   7,  24)
       No. of Lagrangian Particles:             3
       Total Heat Release Rate:            640.060 kW
       Radiation Loss to Boundaries:      -199.135 kW
 
       Time Step   38300   March  7, 2021  22:53:55
       Step Size:    0.883E-02 s, Total Time:     582.33 s
       Pressure Iterations:      2
       Maximum Velocity Error:  0.24E-01 on Mesh   1 at (  13   9   8)
       Maximum Pressure Error:  0.85E+03 on Mesh   1 at (  18   5   7)
       ---------------------------------------------------------------
       Max CFL number:  0.87E+00 at (  17,   8,  20)
       Max divergence:  0.16E+02 at (  18,   5,   7)
       Min divergence: -0.52E+01 at (  20,   8,  17)
       Max VN number:   0.38E+00 at (  17,   6,  24)
       No. of Lagrangian Particles:             3
       Total Heat Release Rate:            502.981 kW
       Radiation Loss to Boundaries:      -146.068 kW
 
       Time Step   38400   March  7, 2021  22:53:59
       Step Size:    0.891E-02 s, Total Time:     583.29 s
       Pressure Iterations:      2
       Maximum Velocity Error:  0.21E-01 on Mesh   1 at (  21   8   7)
       Maximum Pressure Error:  0.11E+04 on Mesh   1 at (  11  10  24)
       ---------------------------------------------------------------
       Max CFL number:  0.91E+00 at (  16,   8,  16)
       Max divergence:  0.21E+02 at (  14,   9,   9)
       Min divergence: -0.52E+01 at (  21,   8,  17)
       Max VN number:   0.38E+00 at (  19,   8,  24)
       No. of Lagrangian Particles:             3
       Total Heat Release Rate:            630.176 kW
       Radiation Loss to Boundaries:      -189.776 kW
 
       Time Step   38500   March  7, 2021  22:54:03
       Step Size:    0.880E-02 s, Total Time:     584.20 s
       Pressure Iterations:      3
       Maximum Velocity Error:  0.23E-01 on Mesh   1 at (  18   9   8)
       Maximum Pressure Error:  0.76E+03 on Mesh   1 at (  19   8  24)
       ---------------------------------------------------------------
       Max CFL number:  0.84E+00 at (  20,   7,  15)
       Max divergence:  0.17E+02 at (  17,   8,   8)
       Min divergence: -0.26E+01 at (  18,  10,  13)
       Max VN number:   0.40E+00 at (  21,   8,  24)
       No. of Lagrangian Particles:             3
       Total Heat Release Rate:            703.729 kW
       Radiation Loss to Boundaries:      -214.962 kW
 
       Time Step   38600   March  7, 2021  22:54:07
       Step Size:    0.945E-02 s, Total Time:     585.13 s
       Pressure Iterations:      2
       Maximum Velocity Error:  0.29E-01 on Mesh   1 at (  14   9  11)
       Maximum Pressure Error:  0.70E+03 on Mesh   1 at (  21  10  20)
       ---------------------------------------------------------------
       Max CFL number:  0.85E+00 at (  17,   8,  21)
       Max divergence:  0.14E+02 at (  15,   7,   6)
       Min divergence: -0.56E+01 at (  17,   9,   6)
       Max VN number:   0.34E+00 at (  24,   8,  24)
       No. of Lagrangian Particles:             3
       Total Heat Release Rate:            514.937 kW
       Radiation Loss to Boundaries:      -163.384 kW
 
       Time Step   38700   March  7, 2021  22:54:11
       Step Size:    0.102E-01 s, Total Time:     586.06 s
       Pressure Iterations:      2
       Maximum Velocity Error:  0.33E-01 on Mesh   1 at (  17  10  12)
       Maximum Pressure Error:  0.37E+03 on Mesh   1 at (  16   7  20)
       ---------------------------------------------------------------
       Max CFL number:  0.90E+00 at (  11,  10,  24)
       Max divergence:  0.16E+02 at (  14,   7,   6)
       Min divergence: -0.32E+01 at (  15,  10,   7)
       Max VN number:   0.32E+00 at (  13,  10,  24)
       No. of Lagrangian Particles:             3
       Total Heat Release Rate:            459.139 kW
       Radiation Loss to Boundaries:      -137.897 kW
 
       Time Step   38800   March  7, 2021  22:54:15
       Step Size:    0.102E-01 s, Total Time:     587.08 s
       Pressure Iterations:      2
       Maximum Velocity Error:  0.42E-01 on Mesh   1 at (  18   9  12)
       Maximum Pressure Error:  0.38E+03 on Mesh   1 at (  14   9  12)
       ---------------------------------------------------------------
       Max CFL number:  0.91E+00 at (  15,   9,  19)
       Max divergence:  0.18E+02 at (  14,   7,   6)
       Min divergence: -0.39E+01 at (  15,   7,  14)
       Max VN number:   0.41E+00 at (  21,   8,  24)
       No. of Lagrangian Particles:             3
       Total Heat Release Rate:            604.737 kW
       Radiation Loss to Boundaries:      -201.934 kW
 
       Time Step   38900   March  7, 2021  22:54:19
       Step Size:    0.101E-01 s, Total Time:     588.03 s
       Pressure Iterations:      2
       Maximum Velocity Error:  0.38E-01 on Mesh   1 at (  14   9  11)
       Maximum Pressure Error:  0.67E+03 on Mesh   1 at (  20   6  19)
       ---------------------------------------------------------------
       Max CFL number:  0.88E+00 at (  19,   8,  16)
       Max divergence:  0.17E+02 at (  17,   8,   8)
       Min divergence: -0.43E+01 at (  17,   9,   6)
       Max VN number:   0.37E+00 at (  22,   8,  24)
       No. of Lagrangian Particles:             3
       Total Heat Release Rate:            734.435 kW
       Radiation Loss to Boundaries:      -230.047 kW
 
       Time Step   39000   March  7, 2021  22:54:23
       Step Size:    0.102E-01 s, Total Time:     588.99 s
       Pressure Iterations:      2
       Maximum Velocity Error:  0.26E-01 on Mesh   1 at (  13   9   9)
       Maximum Pressure Error:  0.47E+03 on Mesh   1 at (  17   7  17)
       ---------------------------------------------------------------
       Max CFL number:  0.87E+00 at (  18,   9,  22)
       Max divergence:  0.14E+02 at (  17,   8,   8)
       Min divergence: -0.43E+01 at (  17,   9,   6)
       Max VN number:   0.41E+00 at (  20,   7,  24)
       No. of Lagrangian Particles:             3
       Total Heat Release Rate:            417.588 kW
       Radiation Loss to Boundaries:      -122.915 kW
 
       Time Step   39100   March  7, 2021  22:54:26
       Step Size:    0.110E-01 s, Total Time:     589.99 s
       Pressure Iterations:      2
       Maximum Velocity Error:  0.24E-01 on Mesh   1 at (  17   9  10)
       Maximum Pressure Error:  0.78E+03 on Mesh   1 at (  15   9  12)
       ---------------------------------------------------------------
       Max CFL number:  0.89E+00 at (  24,  10,  24)
       Max divergence:  0.15E+02 at (  14,   8,  10)
       Min divergence: -0.45E+01 at (  17,   9,   6)
       Max VN number:   0.41E+00 at (  22,   8,  24)
       No. of Lagrangian Particles:             3
       Total Heat Release Rate:            487.752 kW
       Radiation Loss to Boundaries:      -150.863 kW
 
       Time Step   39200   March  7, 2021  22:54:30
       Step Size:    0.856E-02 s, Total Time:     590.94 s
       Pressure Iterations:      1
       Maximum Velocity Error:  0.43E-01 on Mesh   1 at (  17   9  11)
       Maximum Pressure Error:  0.97E+03 on Mesh   1 at (  23  10  24)
       ---------------------------------------------------------------
       Max CFL number:  0.91E+00 at (  18,   8,  18)
       Max divergence:  0.18E+02 at (  15,  10,  14)
       Min divergence: -0.45E+01 at (  16,  10,  14)
       Max VN number:   0.29E+00 at (  23,   8,  24)
       No. of Lagrangian Particles:             3
       Total Heat Release Rate:            813.134 kW
       Radiation Loss to Boundaries:      -267.696 kW
 
       Time Step   39300   March  7, 2021  22:54:34
       Step Size:    0.829E-02 s, Total Time:     591.78 s
       Pressure Iterations:      3
       Maximum Velocity Error:  0.23E-01 on Mesh   1 at (  21   8   9)
       Maximum Pressure Error:  0.72E+03 on Mesh   1 at (  20   8   9)
       ---------------------------------------------------------------
       Max CFL number:  0.80E+00 at (   7,  10,  24)
       Max divergence:  0.25E+02 at (  17,   8,   8)
       Min divergence: -0.38E+01 at (  13,   9,   7)
       Max VN number:   0.39E+00 at (  20,   8,  24)
       No. of Lagrangian Particles:             3
       Total Heat Release Rate:            554.705 kW
       Radiation Loss to Boundaries:      -162.125 kW
 
       Time Step   39400   March  7, 2021  22:54:38
       Step Size:    0.960E-02 s, Total Time:     592.68 s
       Pressure Iterations:      3
       Maximum Velocity Error:  0.32E-01 on Mesh   1 at (  13   9   8)
       Maximum Pressure Error:  0.14E+04 on Mesh   1 at (  10  10  24)
       ---------------------------------------------------------------
       Max CFL number:  0.93E+00 at (   9,  10,  24)
       Max divergence:  0.15E+02 at (  17,   8,  12)
       Min divergence: -0.37E+01 at (  12,   9,  24)
       Max VN number:   0.38E+00 at (  18,   7,  24)
       No. of Lagrangian Particles:             3
       Total Heat Release Rate:            757.765 kW
       Radiation Loss to Boundaries:      -240.196 kW
 
       Time Step   39500   March  7, 2021  22:54:42
       Step Size:    0.926E-02 s, Total Time:     593.63 s
       Pressure Iterations:      2
       Maximum Velocity Error:  0.31E-01 on Mesh   1 at (  18   9  11)
       Maximum Pressure Error:  0.98E+03 on Mesh   1 at (  16  10  13)
       ---------------------------------------------------------------
       Max CFL number:  0.95E+00 at (  18,   8,  21)
       Max divergence:  0.15E+02 at (  13,   8,   7)
       Min divergence: -0.39E+01 at (  17,   9,   6)
       Max VN number:   0.44E+00 at (  18,   7,  24)
       No. of Lagrangian Particles:             3
       Total Heat Release Rate:            570.641 kW
       Radiation Loss to Boundaries:      -180.019 kW
 
       Time Step   39600   March  7, 2021  22:54:46
       Step Size:    0.957E-02 s, Total Time:     594.51 s
       Pressure Iterations:      2
       Maximum Velocity Error:  0.43E-01 on Mesh   1 at (  14   9  11)
       Maximum Pressure Error:  0.56E+03 on Mesh   1 at (  14   9  10)
       ---------------------------------------------------------------
       Max CFL number:  0.84E+00 at (  24,  10,  24)
       Max divergence:  0.19E+02 at (  17,   7,   6)
       Min divergence: -0.65E+01 at (  17,   9,   7)
       Max VN number:   0.33E+00 at (  21,   8,  21)
       No. of Lagrangian Particles:             3
       Total Heat Release Rate:            569.580 kW
       Radiation Loss to Boundaries:      -173.262 kW
 
       Time Step   39700   March  7, 2021  22:54:50
       Step Size:    0.922E-02 s, Total Time:     595.43 s
       Pressure Iterations:      3
       Maximum Velocity Error:  0.20E-01 on Mesh   1 at (  13   9   9)
       Maximum Pressure Error:  0.95E+03 on Mesh   1 at (  14   9   9)
       ---------------------------------------------------------------
       Max CFL number:  0.86E+00 at (   8,  10,  24)
       Max divergence:  0.14E+02 at (  21,   8,  14)
       Min divergence: -0.52E+01 at (  14,   8,  24)
       Max VN number:   0.36E+00 at (  14,   7,  24)
       No. of Lagrangian Particles:             3
       Total Heat Release Rate:            605.047 kW
       Radiation Loss to Boundaries:      -174.331 kW
 
       Time Step   39800   March  7, 2021  22:54:54
       Step Size:    0.869E-02 s, Total Time:     596.37 s
       Pressure Iterations:      2
       Maximum Velocity Error:  0.24E-01 on Mesh   1 at (  17  10  12)
       Maximum Pressure Error:  0.66E+03 on Mesh   1 at (  16  10  13)
       ---------------------------------------------------------------
       Max CFL number:  0.86E+00 at (  19,   8,  17)
       Max divergence:  0.17E+02 at (  14,   9,  10)
       Min divergence: -0.38E+01 at (  21,   5,  23)
       Max VN number:   0.38E+00 at (  24,   9,  24)
       No. of Lagrangian Particles:             3
       Total Heat Release Rate:            599.899 kW
       Radiation Loss to Boundaries:      -187.920 kW
 
       Time Step   39900   March  7, 2021  22:54:58
       Step Size:    0.859E-02 s, Total Time:     597.29 s
       Pressure Iterations:      2
       Maximum Velocity Error:  0.15E-01 on Mesh   1 at (  16  10  12)
       Maximum Pressure Error:  0.41E+03 on Mesh   1 at (  24  10  24)
       ---------------------------------------------------------------
       Max CFL number:  0.78E+00 at (  24,  10,  24)
       Max divergence:  0.21E+02 at (  14,   9,   9)
       Min divergence: -0.60E+01 at (  22,   8,  14)
       Max VN number:   0.37E+00 at (  24,  10,  24)
       No. of Lagrangian Particles:             3
       Total Heat Release Rate:            518.500 kW
       Radiation Loss to Boundaries:      -159.789 kW
 
       Time Step   40000   March  7, 2021  22:55:02
       Step Size:    0.946E-02 s, Total Time:     598.26 s
       Pressure Iterations:      1
       Maximum Velocity Error:  0.48E-01 on Mesh   1 at (  18  10  12)
       Maximum Pressure Error:  0.78E+03 on Mesh   1 at (  23   5  24)
       ---------------------------------------------------------------
       Max CFL number:  0.84E+00 at (  20,   8,  18)
       Max divergence:  0.13E+02 at (  20,   7,   8)
       Min divergence: -0.47E+01 at (  23,   4,  24)
       Max VN number:   0.38E+00 at (  23,   8,  24)
       No. of Lagrangian Particles:             3
       Total Heat Release Rate:            734.868 kW
       Radiation Loss to Boundaries:      -239.169 kW
 
       Time Step   40100   March  7, 2021  22:55:05
       Step Size:    0.892E-02 s, Total Time:     599.13 s
       Pressure Iterations:      2
       Maximum Velocity Error:  0.10E-01 on Mesh   1 at (  19   9  11)
       Maximum Pressure Error:  0.10E+04 on Mesh   1 at (  22   8  20)
       ---------------------------------------------------------------
       Max CFL number:  0.89E+00 at (  24,  10,  24)
       Max divergence:  0.15E+02 at (  14,   9,  10)
       Min divergence: -0.46E+01 at (  21,   8,  20)
       Max VN number:   0.41E+00 at (  20,   8,  24)
       No. of Lagrangian Particles:             3
       Total Heat Release Rate:            608.048 kW
       Radiation Loss to Boundaries:      -187.131 kW
 
       Time Step   40191   March  7, 2021  22:55:09
       Step Size:    0.858E-02 s, Total Time:     600.00 s
       Pressure Iterations:      5
       Maximum Velocity Error:  0.39E-01 on Mesh   1 at (  19   8   6)
       Maximum Pressure Error:  0.69E+03 on Mesh   1 at (  18   8   6)
       ---------------------------------------------------------------
       Max CFL number:  0.77E+00 at (  24,  10,  24)
       Max divergence:  0.24E+02 at (  18,   8,   9)
       Min divergence: -0.36E+01 at (  18,   8,  23)
       Max VN number:   0.27E+00 at (  22,   9,  24)
       No. of Lagrangian Particles:             3
       Total Heat Release Rate:            645.712 kW
       Radiation Loss to Boundaries:      -190.609 kW
 


 Time Stepping Wall Clock Time (s):     1537.167
 Total Elapsed Wall Clock Time (s):     1542.669

STOP: FDS completed successfully (CHID: couch)
